28
Coordinates from ORCA-job 22581optt
  C   0.74195108267168      1.38420357556498      0.88248120988430
  C   2.08312863815135      2.05420822410007      1.11223661179860
  N   3.14174033994349      1.15292322458045      0.66305369851096
  C   4.45707318043751      1.29406154449434      0.99945452120250
  C   5.06219237928326      2.54656389230328      1.19014798499943
  F   4.32364988957211      3.67121984028074      1.10146331994871
  C   6.40425805871532      2.65623851352900      1.43125601912007
  N   7.21501246471293      1.59849061131624      1.49344448332705
  C   6.66494855728214      0.41185262948366      1.33593833316810
  O   7.49347882274981     -0.65419837524333      1.40272740546318
  C   5.30377833643549      0.17687664981740      1.11743857401633
  C   4.77109126790211     -1.19046657727489      1.05764667710940
  C   5.21431007151425     -2.24520495469715      0.32691583874712
  O   4.50735008137094     -3.35742462121450      0.58885713421566
  C   3.56740958611297     -3.03655032626455      1.51435273094549
  C   3.68983796448572     -1.72826242418957      1.84065576002728
  O   2.97604966675568     -0.97953382927958      2.72389931491709
  H   -0.07027154655944      2.03798515385198      1.19691757594460
  H   0.67480071078414      0.45577003926337      1.45299711563463
  H   0.60501977563398      1.15228738428956     -0.17476933460564
  H   2.21292047223970      2.28857914332388      2.17316170989914
  H   2.13440884369573      2.98958750301529      0.55806883851579
  H   2.84393834085630      0.19060431874290      0.61372109475226
  H   6.84082098534703      3.63918502077811      1.56535358956168
  H   8.37090629986695     -0.29927733256876      1.59770075060278
  H   6.01900401006020     -2.34102736588788     -0.38043067497737
  H   2.91375491255156     -3.82467707283680      1.84346252769733
  H   2.45343680742703     -1.55401438927826      3.29184718957351
