26
Coordinates from ORCA-job 22580optt
  C   3.20584778156622      0.40190074490985     -1.32135190617297
  C   2.43056498747375      0.01936765606684     -0.07051388166375
  N   2.85163898051766     -1.27756082272297      0.45423879480149
  C   2.29332208366363     -2.42854931149725     -0.09080557706369
  C   2.70665892863885     -3.62165407826402      0.30785932044687
  F   2.19767647487371     -4.74754457036636     -0.17937340755022
  N   3.69113542286387     -3.80189564950011      1.26473358881556
  C   4.06567299367067     -5.06942145341790      1.66424974111822
  C   4.99931024148708     -5.26414681997807      2.61204818795714
  O   5.39843883003401     -6.48845298955146      3.03333425797802
  C   5.67289392136321     -4.15657553845625      3.28102387571869
  N   6.56113063764468     -4.25539630155283      4.19161673539267
  C   5.23043827180318     -2.85436808981927      2.79916212845002
  F   5.81923302802281     -1.82654536356058      3.37428514815048
  C   4.28851288662128     -2.67613956502240      1.83752729318899
  C   3.88130003623221     -1.31425173338234      1.36191175112755
  O   4.42003995527004     -0.30440895904411      1.75187325172220
  H   2.85269888710562      1.35850416065039     -1.70627717486579
  H   3.07933603570217     -0.34952103717864     -2.10271100970546
  H   4.26661840765379      0.49106302459890     -1.08940998471735
  H   1.36079879752862     -0.04720882738796     -0.27330959970089
  H   2.58822374156924      0.75041649186223      0.71844692736884
  H   1.52121788479011     -2.32185190770870     -0.83517542804231
  H   3.56178403605862     -5.88463072634131      1.16824787817342
  H   4.92948410352551     -7.18630917000429      2.56504235364575
  H   6.74202264431942     -5.23681916333135      4.39532673542650
