34
Coordinates from ORCA-job 22583optt
  C   1.29680656258588      0.26030713142956     -0.05536451731415
  C   2.78302321980397      0.04426378844246      0.19862033363931
  N   3.27421685052342     -1.23728980962375     -0.29017250948839
  C   2.88349280750368     -2.40434234565707      0.32416976372283
  N   2.37495871162911     -2.37428436764191      1.54339923189272
  C   2.04868584640517     -3.53558774628359      2.12036174320073
  C   2.18977993220496     -4.77727432519681      1.53479396567207
  C   1.78844876649419     -6.03323691603167      2.25151761330413
  C   2.72593639425775     -4.82541657320605      0.23203430348221
  C   2.91727285037096     -6.12338499415320     -0.49306011845035
  C   3.06295786335085     -3.62763444259397     -0.34022166297413
  F   3.58174069105183     -3.57743081824281     -1.58624703195020
  C   3.62142467548765      1.14769407917996     -0.39494504228630
  N   3.22190980107373      2.34547381614181     -0.54350312970633
  C   4.34058134957980      3.08279177546692     -1.14553358343711
  C   5.56957585422614      2.16708396230718     -0.98363053038034
  N   4.91085971402554      0.87141312057825     -0.82726921522355
  H   0.72768136088298     -0.52187048455338      0.44522304543352
  H   1.09120905811983      0.23188507489006     -1.12651912749326
  H   0.99155814479599      1.23432759891389      0.32126050763537
  H   2.95905430379317      0.04891614198305      1.27733126641405
  H   3.40273914678475     -1.30683407920664     -1.28937127664041
  H   1.63688259109855     -3.45973965281105      3.12174488669987
  H   1.41003005365248     -5.80170859088241      3.24611546323989
  H   2.63218370799057     -6.71806493763783      2.36246442831516
  H   1.00636644596428     -6.57153599564283      1.71081372288130
  H   1.96057399534162     -6.63526280176980     -0.61361032292270
  H   3.56637783590794     -6.78643217732594      0.08169194847188
  H   3.35623510610318     -5.97271844598014     -1.47564176622479
  H   4.46865604866186      4.05300967951340     -0.66848491208864
  H   4.11535845342555      3.25765038896778     -2.20147846914324
  H   6.14536222885776      2.42653806611393     -0.08958388935637
  H   6.23204300395836      2.18064082576832     -1.84714730360902
  H   5.39601662408642      0.10505405474430     -0.38575781531576
