30
Coordinates from ORCA-job 22607optt
  C   1.43411693367025      0.76800159220340      0.72784823605693
  C   2.69666613296728      0.25329085372224      0.03339119341169
  C   3.00368244861355     -1.16767614645017      0.38806604065529
  C   3.98933312614711     -1.63048500910830      1.19179941260630
  C   3.95431846735079     -3.05348056887549      1.35169974252373
  C   2.90598386742604     -3.63934276238243      0.62900515807106
  S   1.98844829654668     -2.44500916805745     -0.21792123745221
  C   2.70222034160115     -5.02454988708368      0.66056050965011
  C   1.57176935624890     -5.64130911703389     -0.11365790328963
  C   1.40791069794841     -7.13760240839331      0.08070311601109
  C   0.24291003494278     -7.68390087999482     -0.72726129348780
  N   -0.17331637337321     -8.92390432559140     -0.35727495697221
  O   -0.27127445167655     -7.07431123485469     -1.63790165538789
  C   3.58632653997012     -5.74265428674091      1.44097382397389
  C   4.59192745472971     -5.04928024636696      2.12700611882533
  F   5.41547868584025     -5.78247873596879      2.88463615951672
  N   4.80403125164412     -3.77340922558265      2.10986362396447
  H   1.24926955780340      1.81021999955034      0.46796556624589
  H   1.53888557398480      0.69434047775143      1.81045134088366
  H   0.56135658650732      0.18376611718040      0.43445376322926
  H   3.55508844652849      0.86281233037807      0.32012743067548
  H   2.58572389823626      0.34767337227614     -1.04938893208744
  H   4.72765034076210     -1.00017306599424      1.66675264400672
  H   1.70432023953476     -5.42759046287756     -1.17741275161558
  H   0.64303953739543     -5.13407509623636      0.16405210716772
  H   1.26121257072015     -7.38108364663922      1.13605712435225
  H   2.30653459910344     -7.67021529565049     -0.24607908939995
  H   0.27257520901309     -9.43888496775538      0.37977282908880
  H   -0.90026440350272     -9.36599878299348     -0.89416509824601
  H   3.53107503331606     -6.81568942243027      1.54687697702231
