28
Coordinates from ORCA-job 2261optt
  Br  2.47363391489428     -0.98343602264036      3.73243598311137
  C   3.32833172727159     -0.47496271511341      2.13313479115055
  C   3.41564162795487     -1.23278110278858      1.02177637021566
  C   2.91490172657801     -2.62880226481480      0.68881872740911
  C   1.51231344391871     -3.06980857738949      1.14412184114950
  C   0.42429762371180     -2.60345289113408      0.18768928172315
  C   0.44068096401057     -1.09741646755281     -0.07196954919342
  O   1.41224858519429     -0.96501106374420     -1.10924644315214
  C   1.76878753592972     -2.27389226792172     -1.52365601396361
  O   0.71674911140223     -3.10420812245293     -1.11706830400981
  C   3.07375186950517     -2.70676868722196     -0.85501482168528
  C   4.22219368694636     -1.75080464383604     -1.20694496826478
  C   4.18955372572283     -0.74269972642386     -0.09263443691639
  C   4.76433364811642      0.45691288739755     -0.01514855054228
  O   4.64509058506502      1.23730033196265      1.07645236362891
  C   3.94455162436429      0.85814678351028      2.19608724950428
  O   3.88641267924776      1.62110158245463      3.11317014071132
  H   3.64470373648624     -3.30633807752590      1.14677891973873
  H   1.29973362309594     -2.73209948149071      2.15433015597032
  H   1.48874952379015     -4.16121945901772      1.15240372831179
  H   -0.55324752285134     -2.97741754545689      0.48423926441815
  H   0.74667931914674     -0.51495013361690      0.79880757105126
  H   -0.52402167689881     -0.74005781859645     -0.43463884954443
  H   1.84152787560118     -2.29704779064210     -2.61193989900576
  H   3.27719254563542     -3.72830353797267     -1.17723271108556
  H   4.09305699389341     -1.29321413937884     -2.18922235767908
  H   5.17514849634598     -2.28432774365974     -1.21122328009514
  H   5.35700300592115      0.92655869506708     -0.78730620295639
