27
Coordinates from ORCA-job 22619optt
  C   1.06283634410397      0.19099063018195     -0.39885222896064
  C   2.44762398753877     -0.16487253062646      0.12660216796980
  C   2.99045472314185      0.84310469128900      1.15301667212221
  N   2.13738007742361      0.94779737457138      2.33046514953235
  C   1.06103317833669      1.77354341998394      2.43846191545785
  O   0.14513365415489      1.62001887718261      3.19012461742302
  O   1.07882691714962      2.88458322527901      1.63334785492177
  C   2.14624172300940      3.17251182716165      0.83675239923672
  C   2.20320596203086      4.44514970308014      0.28147770605991
  C   3.24662361546404      4.75799770007783     -0.56270395067924
  C   4.24993047547332      3.83415275776076     -0.86663977856370
  C   5.32014385812188      4.28174415510766     -1.82141723198305
  O   6.25811836444545      3.39612531491495     -2.18061197600875
  O   5.33459525079294      5.39137432173898     -2.26442026348984
  C   4.14899866429909      2.58757938407215     -0.26972349016387
  F   5.09176036661810      1.64107658667671     -0.50124719849886
  C   3.11872415676677      2.22160828672766      0.57526103226450
  H   0.72566262050595     -0.55149192775201     -1.12049144863656
  H   1.06428171299953      1.16169661045948     -0.89791979613376
  H   0.32629925056627      0.22307634190093      0.40588585330261
  H   3.16443502361444     -0.22837287445932     -0.69538287105340
  H   2.42723112646595     -1.14909895408153      0.60248750080913
  H   3.97255769103789      0.50631765059521      1.48881975730172
  H   2.03569015800984      0.12004101153963      2.89873230978510
  H   1.42667701844432      5.15852394861234      0.51845062738790
  H   3.32224362093900      5.73567752584181     -1.01889299049023
  H   6.13529045854551      2.54614494216351     -1.74258233891272
