29
Coordinates from ORCA-job 22613optt
  C   1.56065668253391      0.15511350620086     -1.25286330133688
  C   2.48705071826012      0.10605699203480     -0.07205621702185
  N   2.14271865762952      1.04287260224956      1.00393275372769
  C   3.21014877541908      1.19532159472203      1.70488944180184
  N   3.27533622539333      1.93152317234069      2.84474681272734
  C   4.37328449744240      0.40202033863093      1.18106383785427
  C   4.02131491712937     -1.09789969270122      1.40748612456328
  C   2.72536393546503     -1.30482937265411      0.56889455107572
  C   1.49650995300461     -1.82200128962034      1.26723748216436
  N   0.70655254964982     -2.60598701497162      0.52968246850368
  C   -0.41892224800091     -3.08730225944350      1.04199470922115
  C   -0.83546673637406     -2.82496903971698      2.33790942260555
  C   -0.03443275798805     -2.01803008257691      3.12669158406619
  C   1.12605470861678     -1.51767027803131      2.57634867111702
  F   1.89858272455885     -0.73820503921170      3.34889678573922
  C   3.95802417251764      0.49130065930155     -0.29666201711190
  O   4.57434322185470      0.75583437591829     -1.27887079075313
  H   0.56006835410054     -0.16310687199150     -0.96093458803958
  H   1.91839109042250     -0.50240026941677     -2.04530617221437
  H   1.50696480187094      1.17294250191046     -1.63804087988171
  H   2.48492144242178      2.52672121736402      3.03741888334985
  H   4.17275839119707      2.25299859774293      3.16165211603323
  H   5.37669108009659      0.71116606804125      1.45492671106694
  H   3.89945384753499     -1.32334559832833      2.46258978591505
  H   4.82609164527095     -1.71812783939419      1.01442689521213
  H   2.91169761467171     -2.01010207451582     -0.24184800125333
  H   -1.01290235149834     -3.71488732776347      0.38766999144275
  H   -1.75810367708981     -3.24087030943726      2.71828535226139
  H   -0.28815223611111     -1.76613726668234      4.14783758716406
