32
Coordinates from ORCA-job 22625optt
  C   3.02292570747080     -1.10066518000390     -3.00311000597870
  C   2.40932833505795     -1.81924897502808     -1.80931481014092
  C   2.84222124993809     -1.24995071958220     -0.45090354608201
  N   2.10201046741263     -1.91945198758291      0.60721452590372
  C   1.94709266497131     -1.41615323767531      1.85411839119553
  O   1.42533131360441     -2.00373305472076      2.77181304848194
  C   4.35424547318255     -1.28558172406710     -0.23866282690727
  C   5.11356779648602     -0.12391063863925     -0.39672689900238
  C   4.59948603617369      1.24143184035369     -0.76385652704466
  O   3.50074896940382      1.52764592338164     -1.15440976132693
  N   6.44476769143377     -0.06554210165982     -0.21830010908409
  C   7.04854092443318     -1.16541629874769      0.09661123603785
  F   8.36823944621617     -1.10460169048305      0.25946038949304
  C   6.42282199381053     -2.38826601728375      0.28427180507517
  C   5.05075361660315     -2.46482009484855      0.12952337826379
  C   4.36033120526319     -3.78855380294629      0.38213549060571
  C   5.27996509425157     -5.00183041809265      0.45245369110561
  H   2.67379149081488     -1.55037417830723     -3.93226466534686
  H   4.11217507082837     -1.16583148853147     -2.99086168304998
  H   2.74817037100107     -0.04701835331304     -3.00616207528822
  H   2.65344950154452     -2.88360546991827     -1.85867668283098
  H   1.32025786722882     -1.74507722481083     -1.85027886466782
  H   2.53949186923913     -0.20671780682931     -0.43821796930930
  H   1.76446556050396     -2.86038216147401      0.46349272380901
  H   2.34968489690699     -0.39268259216987      1.95284341511542
  H   5.38653159384261      2.00490910851917     -0.64388188052157
  H   7.02244239832569     -3.24436592875935      0.55332658463313
  H   3.61589708327469     -3.95617302342686     -0.39638083574519
  H   3.80239404270781     -3.70593757134722      1.31828754492620
  H   5.89842689624323     -5.08844411874496     -0.44217345279176
  H   4.68218186534831     -5.90816270988568      0.53738018329131
  H   5.93726150647697     -4.96348830337500      1.32125018718122
