29
Coordinates from ORCA-job 2262optt
  Br  1.07829490311095     -0.15803498690359      0.07082474078053
  C   2.96576682737700      0.03802266810724     -0.07497913200316
  C   3.57083070002992      1.16081522615100      0.43956628022324
  C   3.10360199998688      2.43009885791380      1.10142053381695
  C   3.18865788680771      3.54278915014339      0.01635693428373
  C   4.70932881968792      3.74750114353212     -0.14367174099213
  N   5.16552395855952      5.09307043471256      0.18217394271203
  C   6.49686369619777      5.26162219270245     -0.40659771615947
  C   6.31859417313171      4.63876761299249     -1.78652333865065
  C   5.25003902016824      3.58213188277241     -1.55977136206271
  O   4.87994716360087      2.76194910209474     -2.35041791340141
  C   5.27506916206402      2.64484852430391      0.85949547809203
  N   4.28764401241246      2.68955810386637      1.95328521762381
  C   4.94540655770701      1.29154890547979      0.28318954957156
  C   5.66871454526289      0.30970725220637     -0.35577155126611
  C   4.94893905121039     -0.79561281578589     -0.80483579420053
  N   3.63235183145920     -0.93019814926279     -0.67011465535344
  H   2.16688772622352      2.37461752253342      1.64696981711647
  H   2.73714754404102      4.46983358890114      0.37059877118509
  H   2.71508100895417      3.25029967046119     -0.91983195984375
  H   5.13744488044436      5.29890157974758      1.17366642455302
  H   7.28131728892823      4.73012360558884      0.14831109508576
  H   6.76292562321058      6.31632661697709     -0.44089545886841
  H   7.21699005790357      4.20126647612705     -2.21718921674286
  H   5.91420358426393      5.36246164368628     -2.49702394480179
  H   6.30306293769338      2.81474335805036      1.17113830082971
  H   4.23639974499435      3.61906904627629      2.36374488436060
  H   6.73699561683117      0.37381918623662     -0.51197664602272
  H   5.45596967773722     -1.61404739961223     -1.30214153986540
