34
Coordinates from ORCA-job 22621optt
  C   1.00724274279313      2.33905498868846     -0.63396230357178
  C   2.53020853843144      2.30531614288697     -0.68560917904922
  C   3.04616955481728      0.94445024614994     -1.14024016613771
  C   4.57251089571558      0.83776872598588     -1.29386001886644
  C   5.28889142483282      1.12376506514071      0.01681898918613
  O   4.90003901635706     -0.50144578848142     -1.70241592750397
  C   5.05731910144006      1.75499484592416     -2.41317910123719
  C   4.82918257409033      1.45726660102981     -3.77714036318230
  N   4.14153907171961      0.33193456232674     -4.18838053084429
  C   5.28091285109523      2.38494949332438     -4.71335881557234
  C   5.90278974540503      3.53165637368758     -4.27602035345409
  F   6.34747622926658      4.41699466881698     -5.17934477518248
  C   6.08628566863844      3.77434010243138     -2.92580444861204
  C   6.72781308280656      5.02545572857202     -2.39834892220452
  C   5.75482365313505      5.82878003096060     -1.56083353977715
  O   5.71068890272235      7.02557075333250     -1.55076930170269
  N   5.65922395277508      2.87472186183373     -2.04401364870152
  H   0.64203980484607      3.31038475502919     -0.30087502805454
  H   0.62382906054212      1.58375690074061      0.05502248380939
  H   0.58005884876565      2.13774070526295     -1.61788840687322
  H   2.93282635869007      2.54422233363565      0.30103311222674
  H   2.89480197556470      3.07818876461453     -1.36740330371888
  H   2.58573206876578      0.68111157318803     -2.09614521810031
  H   2.73323777697331      0.18157945325680     -0.41655827645495
  H   4.91110272458805      0.44262841966945      0.78422253631341
  H   5.13224805639642      2.14686946681042      0.34669242484975
  H   6.35915663420571      0.96522017659350     -0.10665698938923
  H   4.63696165025189     -1.10009037531919     -0.99555885464715
  H   4.21656618423761     -0.45770783804899     -3.56309534181227
  H   4.24294177030797      0.09892026875064     -5.16302342246872
  H   5.14998529536214      2.21886699216185     -5.77541491039237
  H   7.12493593114135      5.65823715911701     -3.18861938161355
  H   7.54884642740634      4.74137756718676     -1.73207186413848
  H   5.07461242591306      5.22111927474033     -0.93319715312201
