32
Coordinates from ORCA-job 22632optt
  C   2.89231139893623      0.38260235592207      3.64595950893407
  C   2.44678102028972     -0.78474423641015      2.77220894147428
  C   0.92928289140925     -0.80366358764971      2.61813368877610
  C   3.05847361972613     -0.75473606155736      1.36957329464738
  N   4.53313113953614     -0.81740034699788      1.36256359776413
  C   5.20234427965634      0.41800189633813      1.37261651923287
  O   4.57278013829611      1.46858748192610      1.34617091036711
  C   6.64920499576850      0.38875668526171      1.41966069121645
  C   7.34446187070948      1.72108089643873      1.49450483901552
  O   6.87739199627309      2.49785656600075      2.57146525492502
  C   7.27282694865740     -0.80700361510431      1.38441218843078
  F   8.60612342638917     -0.87393436578192      1.41125648173549
  C   6.57738872920307     -2.03146339049532      1.29942810908259
  C   5.21756769664156     -1.99606687312069      1.29398028778750
  C   4.46253028525064     -3.30755846044647      1.24827311755835
  N   4.98198269748230     -4.20615769715472      0.37551080478139
  O   3.51197067139073     -3.55312186656647      1.95352925502976
  H   2.43209489762954      0.29951445887107      4.63172894469902
  H   2.60084529787609      1.33663678733903      3.20391660670579
  H   3.97439681746210      0.39970701287676      3.78540914143634
  H   2.75989809314156     -1.71892220407118      3.23991572543895
  H   0.58212533572025      0.10204057015724      2.11362601216288
  H   0.44556727357994     -0.84778674797211      3.59424166120487
  H   0.60011360148048     -1.66812938254294      2.03861298554124
  H   2.79481161986461      0.17501351671274      0.86809493695385
  H   2.68173674367163     -1.59021534462583      0.78472871360107
  H   7.19605242970221      2.24453298621420      0.54271310008435
  H   8.41259135181326      1.57347035074627      1.63910589054501
  H   5.93204663975845      2.63421696890517      2.42000353373168
  H   7.11706565990237     -2.96564538597404      1.28292376280973
  H   5.67459144163098     -3.94822619367007     -0.30412532191347
  H   4.53150899115063     -5.10424277356881      0.30885681623988
