30
Coordinates from ORCA-job 22639optt
  C   1.15344343272133      0.03780210138556     -0.28389752749427
  C   2.64699045409707      0.04452157808321     -0.01910596238691
  C   3.16498244883280      1.21281067923829      0.82756497519284
  O   2.35284140368692      1.49237284629844      1.95031751570226
  C   4.57833580448544      0.75136924060808      1.24183557199631
  C   4.35188912454762     -0.72060278447153      1.62253886774223
  C   3.15579664729536     -1.20787953804359      0.75010157440295
  C   3.53419540212551     -2.27603316167435     -0.16916171450356
  N   3.88116360688173     -3.07635747407247     -0.91403868974934
  C   5.56239476604575      0.97595145925785      0.12117956280615
  C   5.98639663719271      0.01319337139343     -0.73006591899151
  N   6.81641744731710      0.31233055344331     -1.77254703295633
  C   7.30302006043305      1.56907630812321     -2.10057157306144
  O   8.01170595263048      1.75784114940641     -3.06500087418080
  C   6.85258397696269      2.58067579737532     -1.15073512520302
  F   7.30294023857036      3.81137891428524     -1.36438260523584
  C   6.03396087588050      2.30744512576475     -0.11826531649506
  H   0.85819115324285      0.92367389041516     -0.84643438289816
  H   0.59003959978041      0.03276105913793      0.64986163797187
  H   0.87151763421238     -0.84182154988678     -0.86452396336166
  H   3.18304375197046      0.08554456931430     -0.96961197552403
  H   3.18783499465603      2.13893108770304      0.25220985726327
  H   2.24581558222108      0.70296749459201      2.49117731135694
  H   4.89732407585613      1.33345325798516      2.10844059234758
  H   4.07969021351354     -0.79177782486970      2.67546601593735
  H   5.24199127874140     -1.33238808037629      1.49187039066246
  H   2.35711770969835     -1.59992875044969      1.38447190718539
  H   5.69893226198147     -1.02719131390453     -0.66022206148022
  H   7.11022212388966     -0.42253505115266     -2.40149029810251
  H   5.73722134052970      3.11741504509087      0.53901924105707
