30
Coordinates from ORCA-job 22637optt
  C   3.36693804922544      1.27450505301751      0.41559562122616
  C   2.42924757436975      0.10893146739899      0.08458067104251
  C   1.14621483247490      0.64506809247709     -0.38445375347648
  N   0.15357937683898      1.06805941593209     -0.77202238786570
  C   2.99603935619642     -0.88359864781956     -0.97182932415969
  C   1.96481750306309     -1.93436663889169     -1.38846185081585
  C   1.69487917243913     -2.90083119110114     -0.22955923168454
  C   2.97032696329090     -3.67044593748124      0.13512444967802
  C   4.22349200821418     -2.82641684419124      0.10024193274408
  C   5.40008003217258     -3.40125710088525      0.57759865794478
  C   6.58813773593495     -2.71506673795824      0.46709436893701
  F   7.70897531966075     -3.28358664454080      0.92751111714558
  C   6.66182302908838     -1.46569348374012     -0.12037976196199
  C   5.48846033023995     -0.89945361571679     -0.58398863070460
  C   4.25924843642148     -1.55092120854246     -0.46851072746710
  C   0.63170693094432     -3.84673115041769     -0.57252163330783
  N   -0.17921646674672     -4.60571677160061     -0.85381466492404
  H   2.87609747096119      1.97017588007687      1.09419268167931
  H   3.63986503209713      1.81691464507483     -0.49042357519072
  H   4.27150023332011      0.90536027900845      0.89415282212400
  H   2.22630375541729     -0.43485683834116      1.01074048521319
  H   3.24835285856812     -0.28543105857508     -1.85181070793090
  H   2.35683022903645     -2.50416790654105     -2.23391555292973
  H   1.03734321765029     -1.46289044944318     -1.71256173373482
  H   1.34013952040000     -2.33734514277694      0.63713143555600
  H   3.09691631824320     -4.48462288413637     -0.58427207855007
  H   2.85787922347987     -4.13984226316627      1.11356543162001
  H   5.39799776779225     -4.39022788493493      1.01918266172008
  H   7.61697570683228     -0.96767970542153     -0.21215658445572
  H   5.52704848237331      0.07213527323755     -1.06203013747094
