33
Coordinates from ORCA-job 22642optt
  C   1.62907941625672      0.61804585430994     -0.85049784939555
  C   2.93842847482235      0.11206310747689     -0.28886580906319
  O   3.47920030569679      1.07349013212187      0.61471595320035
  C   3.98342629676138      0.44152463427357      1.78787535971158
  C   3.96565323664363     -1.06641880531128      1.54347794433868
  C   2.81714649736771     -1.18719883982562      0.52013567733829
  N   2.83446838603004     -2.44240916910743     -0.19604936837238
  N   5.25193414603267     -1.59267596548808      1.10350621177649
  C   5.92562880981650     -0.96790294012887     -0.02071338940660
  C   5.55121016110357     -2.92860868728749      1.41311078479475
  C   5.65315199312481     -3.36350173064774      2.73367371595631
  C   5.96855447705413     -4.67434382742370      3.03519532591526
  C   6.21507125589394     -5.54416104688830      1.97587908223458
  O   6.55178263945264     -6.84109093379888      2.15480880388121
  N   6.13395522623032     -5.16217144614399      0.71619010001170
  C   5.79899905615209     -3.92650110338992      0.46993163679038
  F   5.69890166218855     -3.61574350322738     -0.83064268101355
  H   1.77331682963688      1.56165528300731     -1.37584500926848
  H   0.90848530237063      0.77592723678947     -0.04628440628148
  H   1.21724676951563     -0.10608228748423     -1.55706579924935
  H   3.64714725092147     -0.04319915066335     -1.11155307024826
  H   3.33894929939737      0.69939392283679      2.63314875931723
  H   4.98944520699330      0.80805582537718      1.99606804781573
  H   3.70111633080221     -1.60262263231082      2.45279523393866
  H   1.87903563872670     -1.13562645915455      1.08368114928503
  H   3.66532706756150     -2.53732690190474     -0.76968238774968
  H   2.02581071929794     -2.54179158751840     -0.79645570483589
  H   5.86484533290528      0.11579045327474      0.08469030771188
  H   5.52148103539066     -1.23605564820040     -1.00196597794381
  H   6.97728506391598     -1.25397830702542     -0.00597597134495
  H   5.48980666140231     -2.64620105893367      3.52879791225778
  H   6.04281127108197     -5.00875603065478      4.06169181454791
  H   6.59329817945222     -7.03957838694865      3.09522360334931
