30
Coordinates from ORCA-job 22647optt
  C   0.72182385704341      0.16437550240288      0.14113783643185
  C   2.21160882760301      0.05230058123183     -0.18017586828053
  C   2.83435839141145      1.31379618930212     -0.73184507599521
  C   3.87013540243307      1.37322665259244     -1.62954654194636
  C   4.54351108509130      0.14321157123485     -2.07685027424535
  N   4.77636336300499     -0.92017405510333     -1.43383180305008
  S   5.03045056402351      0.07462256412879     -3.80258261386024
  C   5.72079406415049      1.67859569411205     -3.92654836673241
  N   6.74026123789349      1.80670654053078     -4.83791499109664
  C   5.33332664995216      2.68951893601733     -3.13338826878790
  F   6.04999936338411      3.83897140710549     -3.27123716348577
  C   4.25841143809455      2.67453148667584     -2.15968397074858
  C   3.63351429413784      3.82248830577452     -1.75371832773536
  C   3.84449488957362      5.18273326952109     -2.35123201466445
  C   2.63546107022404      3.75635043916539     -0.69692701405028
  N   2.02001135399948      4.70665489996683     -0.09964471180038
  N   2.27984998676286      2.46721688674487     -0.30804100942215
  H   0.33090713769742     -0.82310059105513      0.38174588960843
  H   0.16202979100731      0.55298676406655     -0.70988574256538
  H   0.52149511682773      0.79974722215429      1.00491118465166
  H   2.36215608330371     -0.74596004521345     -0.90561678090991
  H   2.74875608894802     -0.24465063622097      0.72612576972353
  H   4.48607826018705     -0.83436503478996     -0.46172293289184
  H   6.84840012380639      1.07534834499914     -5.52009390434146
  H   6.94336440072939      2.73979014019076     -5.15943785692827
  H   4.27819417381586      5.13180784640648     -3.34324016461561
  H   4.49067721805539      5.80872082545299     -1.73042960782143
  H   2.87995559596729      5.68762827112508     -2.43417453028263
  H   2.32439044473553      5.61438933370640     -0.43005390863619
  H   1.52121972613544      2.44753068777403      0.35790276447898
