34
Coordinates from ORCA-job 22656optt
  C   1.96138726624737     -1.68785658191565     -0.23225563524918
  C   2.24205583403919     -0.24985181881728      0.17664932548119
  C   0.97088390709000      0.50706301151036      0.50421745631807
  O   3.04831798414240     -0.21280324289425      1.35055646435993
  C   4.43098683821870     -0.43079632861718      1.15389485285645
  C   5.18553663782776      0.89638060100514      0.97996863064099
  C   5.23274137200472      1.69481949797205      2.26886615650417
  C   4.03064453379648      2.53338849040953      2.60787377203057
  O   6.19001374929881      1.61845111289624      2.99884359595482
  C   4.92975527754531     -1.24286552926671      2.34769583488573
  C   4.25979013893409     -2.58096333114852      2.33550746681083
  N   4.67748968294912     -3.48177654315658      1.44715854114211
  C   4.04786551059656     -4.64884780769560      1.40115700658177
  N   3.02359389400299     -5.02471787071341      2.15670955574235
  C   2.59183723563205     -4.13512079272119      3.04357207550557
  C   3.18768229639113     -2.89619786463147      3.15740628329192
  F   2.72688550005588     -2.01776448920473      4.05096359091797
  H   1.34008981868148     -1.71587685294159     -1.12846144172593
  H   1.43404959746001     -2.20028741776122      0.57528740796529
  H   2.88132645001523     -2.23565454089423     -0.44089640039380
  H   2.77406533448534      0.26516920101081     -0.63456302673780
  H   0.46627793794508      0.02699182670150      1.34420768330252
  H   0.29572211137379      0.51213369874297     -0.35165473462545
  H   1.19738287782594      1.53706983144531      0.77964223016080
  H   4.59102315259723     -1.02793337831314      0.24988213132258
  H   4.69161219314638      1.46736218300507      0.19015633011398
  H   6.21219422414112      0.68366595583908      0.68117519063205
  H   3.87432743793284      3.28513009635187      1.83076420433829
  H   4.17165735770359      3.01594092680215      3.57141878479019
  H   3.14615351185825      1.89277317129503      2.61792351928118
  H   4.71095787219185     -0.70723097413126      3.27108880784480
  H   6.00872988572037     -1.38000992449980      2.27131868022338
  H   4.40845843667197     -5.36711742729965      0.67403984361683
  H   1.75250414147692     -4.40166688836364      3.67688581611583
