25
Coordinates from ORCA-job 22657optt
  C   1.11280778972819     -0.32757704525626      0.88655318514018
  C   2.43626506938158     -0.00305165505751      0.31643202105794
  C   3.03484328899506      1.14398984350181     -0.02731125455195
  N   4.33141290376105      0.79470430102333     -0.43429122158571
  C   4.49013060777621     -0.56336767402065     -0.38650209437020
  O   5.43025000252640     -1.23808961541387     -0.69042941340657
  O   3.30714022089302     -1.05068636947359      0.10434872250844
  C   2.58579611364568      2.53299186552938      0.02302447115610
  C   3.46029773429654      3.54056281308875      0.51047680579758
  C   3.11160153032630      4.86456412778848      0.57611299166092
  C   1.82276907620081      5.20108102512168      0.13903837567420
  N   1.16118825700708      6.38395795789186      0.06680507599277
  N   -0.08015179902975      6.25267489737893     -0.43141787261042
  C   -0.24794402004537      4.98050931672099     -0.69073366590132
  C   0.92257549486782      4.24166907076481     -0.35201461678321
  C   1.33300000807762      2.90920352429340     -0.40935725986566
  F   0.48599775791640      2.00518867118580     -0.91248741296656
  H   0.60182505460322      0.58674540205845      1.18009338320903
  H   1.22967182142320     -0.96870746441145      1.76100798000813
  H   0.49199809531109     -0.85283279807813      0.15867372928240
  H   4.99431745140952      1.39347358336146     -0.89517255379110
  H   4.43862804556678      3.23189505873044      0.85765515243373
  H   3.79852360738418      5.60769569919354      0.95634340985824
  H   1.48820607779325      7.29661260714824      0.33099357532812
  H   -1.17715018981591      4.62279285693007     -1.10184151327508
