36
Coordinates from ORCA-job 22654optt
  C   0.70792806234988      0.17986649686967     -0.21035588309556
  C   2.21899840354358      0.00651870909722     -0.06028130442017
  N   2.55847514514714     -1.33677400436419     -0.48426328770567
  C   2.61293187743761     -2.29400654780291      0.34365661041968
  S   3.06474403800311     -3.84963719218369     -0.39408085495083
  C   3.07872561106606     -4.96255524559636      0.91867023993261
  C   2.80486151303054     -4.70067936996962      2.20745481601926
  C   2.84514185272671     -5.74871734957393      3.28178361765929
  C   2.45172729266486     -3.35206973396978      2.57097044487706
  F   2.17890386770092     -3.18700638220734      3.87316550412769
  C   2.35985765226475     -2.27618488050944      1.77534987065545
  C   2.99725747033622      1.02811560053670     -0.90612536377271
  N   2.62862673486301      2.40696113552487     -0.56313723333033
  C   4.54694287266397      0.92652863041307     -0.82235817854221
  C   5.03110725759352      0.96893097671148      0.62795284824023
  C   5.12155243408043     -0.29129620573905     -1.53226252963072
  O   5.07303537348564      2.04483450082367     -1.52354317347223
  H   0.18614901998335     -0.57998797747383      0.37311306651118
  H   0.42498179955826      0.05365862769282     -1.25706131209496
  H   0.37623395415632      1.15915705628807      0.13307290399245
  H   2.49004851355042      0.19267596782694      0.98818089897186
  H   3.34407063398577     -5.96669664807125      0.61004884517862
  H   3.14503959498973     -6.70767138251877      2.86403711553324
  H   1.86767122294962     -5.86301619329632      3.75291163087566
  H   3.55046131840131     -5.47424088407011      4.06734985661459
  H   2.05784949028337     -1.34472030874453      2.23414401100720
  H   2.73247220515470      0.87189387076202     -1.95579929621895
  H   2.53973268750946      2.52714646843568      0.44015880485432
  H   1.74756048187163      2.67225226338651     -0.98139057683632
  H   4.73322950921509      0.07515701961592      1.18142663486429
  H   4.64858072655153      1.85144496966874      1.14668842806201
  H   6.11952681235159      1.02820272578367      0.63173341194130
  H   4.94901083716900     -1.21158774426728     -0.97998371177482
  H   6.19592058959751     -0.13550513327955     -1.64028364321312
  H   4.68667231079912     -0.39729319426771     -2.52619139316923
  H   4.47997083296423      2.78430135846866     -1.32575181811019
