32
Coordinates from ORCA-job 22666optt
  C   0.99653138064896      0.29372941168674      0.18097206222463
  C   2.50939177921827      0.07438943668516      0.12826798601916
  C   3.21775550398288      1.30445125800766      0.74014512518564
  C   2.93835507850875     -1.02172478950412      1.10624465586731
  O   2.27142770880715     -1.38560509006061      2.03397121157340
  C   2.95819100872719     -0.28678526696351     -1.28408337628636
  C   3.49449842937855      0.63493135836200     -2.18611342023287
  O   3.61282913880851      1.95607265388103     -1.87852291520855
  C   3.90891354357485      0.20654162224638     -3.43704958349485
  F   4.43496232522145      1.16046700252446     -4.25001346119838
  C   3.78024343230790     -1.09217730679067     -3.88215606346230
  C   4.18542643410038     -1.49020042170862     -5.27539178483079
  O   5.15201169049575     -2.53277811891747     -5.29011062461395
  C   3.21105467676355     -2.01716037877827     -3.00813982772323
  N   3.06406995199640     -3.37903212607369     -3.36393665765047
  C   2.79902536423632     -1.61414427069271     -1.72796764890799
  N   2.29120323966664     -2.58755871707586     -0.87043889354295
  H   0.67640237960103      0.45571772956081      1.20980532504915
  H   0.44220412041876     -0.55931904342607     -0.21368971048472
  H   0.73645349823400      1.16641723852185     -0.41877014116551
  H   2.98471470063974      1.34384582789581      1.80531208783516
  H   2.87253847663914      2.22212422928316      0.27511286837184
  H   4.29976119080427      1.24575851333703      0.61856082422455
  H   3.97454314437514     -1.38240990385447      0.96203652135597
  H   4.00202090290672      2.40914052785193     -2.63558900255601
  H   4.53909700138999     -0.62122253428286     -5.83101643717154
  H   3.32039068355591     -1.89632403291576     -5.80353978127091
  H   5.91617047221390     -2.25380792198903     -4.77551612391885
  H   3.60577152486448     -3.63117114622347     -4.17977663140469
  H   2.09731013212993     -3.66237063053290     -3.47207836849641
  H   2.31805070628774     -3.52476602049205     -1.23885519008929
  H   1.46268037949568     -2.37802908956188     -0.33767302399612
