26
Coordinates from ORCA-job 22665optt
  C   0.86109123686049      0.13580032978611     -0.31110178365878
  C   2.32354923174609     -0.12778413085516      0.02611092437664
  C   3.22649351302260      1.05586415867030     -0.32216036818372
  C   3.42016507173817      1.23751584061589     -1.81050824735482
  O   3.49430555185169      2.30762408635486     -2.36073720787331
  N   3.54611371695648      0.05282770188956     -2.49409358479150
  C   3.40955540934342     -1.19744946502068     -1.91048176084082
  C   3.76323121455757     -2.43836744956914     -2.38249167164056
  C   3.35549213111626     -3.35401561803664     -1.39263622578001
  C   2.75773771674860     -2.64901370727174     -0.35074461609007
  N   2.81931833820233     -1.30320345105893     -0.69139828600739
  C   2.14748604348039     -3.22269670736651      0.81810894135275
  N   1.46242648214875     -2.73930194825964      1.77362319461645
  S   2.37818392623234     -4.99325642428155      0.98585527904366
  C   3.18841395296174     -5.42358581242613     -0.49287881266241
  F   3.41249976025021     -6.73405636960759     -0.52339322895685
  N   3.55999250456077     -4.71925657390185     -1.45985744452751
  H   0.48521390162228      0.97596262574340      0.27333195871623
  H   0.24992090632003     -0.74196200673261     -0.10006213584317
  H   0.75376436611113      0.37795280240181     -1.37020915433744
  H   2.44474318249770     -0.31999937213249      1.09069186616040
  H   4.21872740405721      0.89979765695014      0.11009785956702
  H   2.82132376890247      1.98220409269876      0.07855313639489
  H   3.75923698873133      0.11085645227591     -3.47875460579901
  H   4.26410114508336     -2.66883213669889     -3.30664300604441
  H   1.29791253489656     -1.74362457416718      1.68577898016375
