25
Coordinates from ORCA-job 22673optt
  C   1.25153973653326      0.31078526280284      0.50668740043220
  C   2.69360197731386      0.37377681995603      0.08194983164710
  C   3.21321624303317     -0.55843557343068     -0.97010977480983
  C   3.03223829067478      0.89673894756574     -1.27885139619563
  N   4.22739549882330      1.67203588175070     -1.43319493538674
  C   4.31548212908857      2.94734010574672     -0.99804569431624
  C   3.44670505938471      3.69595766353964     -0.28194459402614
  O   2.20444423846902      3.41161725217866      0.16230261022605
  C   1.76227880383895      4.59341811614101      0.83244662979647
  O   0.68258719244018      4.61665999555528      1.32456332291497
  N   2.75426192732602      5.56349285015390      0.77409457038085
  C   3.74635738602679      5.02841621963375      0.11698122741576
  C   5.01366465225704      5.57885997592440     -0.25211506109021
  C   5.79757771151812      4.76411437036922     -0.96742966058361
  F   6.98483964674977      5.08917380465949     -1.41656590266569
  O   5.51092995986035      3.51775087225623     -1.33664176902420
  H   1.10751590487943     -0.45360759473733      1.27123320736033
  H   0.61526568221853      0.05488809276889     -0.34277623535985
  H   0.92042017276556      1.27040640693684      0.90227533931450
  H   3.40478676333849      0.64665328541731      0.85226544688956
  H   2.51718010380847     -1.25052249691020     -1.42354969980495
  H   4.22964596637283     -0.91567485750800     -0.88070056822850
  H   2.20032429409826      1.18397900379332     -1.91294456668778
  H   4.89181865837949      1.40447436930003     -2.14382536310303
  H   5.32892200080098      6.57770122613617      0.00189563490463
