25
Coordinates from ORCA-job 2268optt
  Br  1.12805570213309      0.44414114443859      0.37900777672523
  C   2.97784521808566      0.24830462472262      0.15311730997465
  C   3.75273061268354      1.23590465264745     -0.33901601490559
  C   3.38327106479859      2.63301888932690     -0.77041807863147
  C   4.53691681270985      2.97905511252900     -1.72497023647896
  C   5.76497680012508      2.36391760930788     -1.01054394536718
  C   5.17093659181464      1.08792542903886     -0.46673103785138
  C   5.74108924185308     -0.06939172439100     -0.07209807182065
  N   4.94903911674997     -1.07058806893248      0.39779203838869
  C   3.55887305138737     -1.03659448012123      0.54146503709292
  O   2.95890196825883     -2.00461937946123      0.94980324892573
  C   6.14858319318564      3.35708650740853      0.08023806319927
  O   6.89478368376473      4.27400223434003     -0.10220443714274
  C   5.50506497126383      3.14591668647791      1.46670667379825
  O   6.18184038220228      2.91371164363302      2.41812700880360
  O   4.16864735672488      3.18455925482008      1.55445822656205
  C   3.32946119821226      3.56679941807057      0.45717830548675
  H   2.40910222424346      2.67490929096308     -1.25652318603577
  H   4.64587043555900      4.04810791474843     -1.90453629034491
  H   4.39462993419384      2.47460113121882     -2.68070706420056
  H   6.62402758330038      2.24034427174988     -1.66740865447229
  H   6.80348298927011     -0.26921120740223     -0.10310012939062
  H   5.36094926769491     -1.94763051377563      0.68498186348622
  H   3.56088564105278      4.59337536576851      0.16163283197467
  H   2.33203495873210      3.54135419287360      0.88774876222410
