32
Coordinates from ORCA-job 22687optt
  C   3.04649437389861      0.45097896784770      1.07817692588993
  C   2.71452460016632     -0.90423572322136      0.45757461766773
  N   1.28708438679595     -1.21640425695590      0.47361866310670
  C   3.20713444276064     -1.00768993184308     -0.99038291972023
  C   4.70719224315093     -0.91845664619662     -1.08825860310102
  N   5.38264165022531     -1.95138044276871     -0.68534385466152
  C   6.72998799882556     -1.93221593206975     -0.71855110059872
  C   7.67627575455980     -2.85953295300367     -0.36822496379005
  C   8.94785348109641     -2.28414207470642     -0.60367650069083
  C   8.78639662117234     -1.01518824597727     -1.10547791064116
  N   9.72574036239339     -0.11425828991859     -1.61687789204090
  N   7.43417797494018     -0.77979222286718     -1.18266416781926
  C   6.70190840347077      0.28939395520837     -1.57952818718543
  F   7.41923179067005      1.34342175704188     -1.95499973428964
  C   5.35128672116224      0.28917846948899     -1.56544054159013
  C   4.57759765891178      1.48395964407220     -2.04951090067531
  O   3.84605620826502      1.21467251458829     -3.23449524299725
  H   2.73652576261313      0.48067438027421      2.12394903332988
  H   2.51497870010872      1.24715199029185      0.54924285665166
  H   4.11775757661637      0.66428745588759      1.03888639945894
  H   3.22276795947096     -1.68865640769142      1.02390183813698
  H   0.76957834152443     -0.51605421237097     -0.04874643587473
  H   0.92807007084743     -1.20038412188834      1.42136079834060
  H   2.72786251026373     -0.23949279541917     -1.60052469064294
  H   2.89718841978954     -1.97899874898078     -1.37521672215615
  H   7.45905156709852     -3.83942389029117      0.01922359998703
  H   9.90555366471907     -2.75063045365915     -0.43711333123166
  H   10.66473677989198     -0.45729617492980     -1.47514180149273
  H   9.64354023546226      0.82587364719105     -1.25395690418547
  H   5.25131520685296      2.33120865822192     -2.19153996016980
  H   3.83418001523977      1.77486703146292     -1.30842381560547
  H   4.45530851703575      0.89656505318237     -3.90783855140905
