31
Coordinates from ORCA-job 22684optt
  C   2.52748492786417      3.58524342013722      2.19884466821051
  C   2.54953415633505      3.93080454559707      0.71693586992207
  N   3.82121402738062      3.57158184612154      0.11839890756599
  C   3.80756805438607      2.70315457261722     -0.80118206445946
  N   4.94607204828392      2.23420026011835     -1.39522350215043
  C   6.22267260459391      2.85372670527961     -1.10714545284807
  C   6.35631214481305      4.24033580211024     -1.67970515403442
  C   6.31243634934696      5.39401275127148     -0.91905471685314
  N   6.42968020744668      6.61640952179953     -1.43977644250885
  C   6.59087357973124      6.69626168792680     -2.75065159805555
  C   6.72211081223595      8.05742306295553     -3.37835288241048
  C   7.20878707428765      9.12840430199490     -2.40369410723364
  C   8.56386656936738      8.84908015971509     -1.92828616225914
  N   9.62926116076034      8.61572157252079     -1.57753409320513
  N   6.62800373709959      5.65472825959476     -3.58850071308848
  C   6.50688432372128      4.48173583581334     -3.03899324430630
  F   6.53146491630172      3.44020416503570     -3.86929167986053
  H   1.59007232897311      3.90536217591495      2.65560982957981
  H   3.35168667946934      4.07881591869051      2.71350920691182
  H   2.63376939016705      2.50945066958756      2.34267432079042
  H   2.41069371960395      5.00817062410617      0.59789459482475
  H   1.71017387114457      3.43688481372851      0.20764540140244
  H   2.88920374140206      2.24062818933029     -1.17972470097437
  H   4.84771484710249      1.74504802257629     -2.26811791412062
  H   7.00609849527833      2.20753872071058     -1.50111062812589
  H   6.33526450972453      2.91061715746542     -0.02447593215699
  H   6.16886027286143      5.32224405667524      0.15335101245471
  H   5.74275448720162      8.35092069539384     -3.76466646237239
  H   7.38891941884671      7.97536100490932     -4.23584830769377
  H   6.55201834543350      9.17629875888928     -1.53588578307325
  H   7.21154319883559     10.10363072141275     -2.89064226987163
