27
Coordinates from ORCA-job 22688optt
  C   1.17287195305546      0.32263658799839     -0.18404915763414
  C   2.63695564097218     -0.09572683394735     -0.22335397918626
  O   3.08745936823461     -0.54809969947198      1.03820094425308
  C   2.88916596067937     -1.12360880267226     -1.30812333493774
  C   2.52125895463684     -2.42564362771793     -1.20367405655483
  F   1.88142653077247     -2.85566380485923     -0.11432877223945
  C   2.79275266047207     -3.37229297586327     -2.20573962677047
  C   2.57643770284793     -4.72278754709636     -2.41356471577484
  C   3.13901865387809     -5.02809904277523     -3.66228072550492
  C   3.68884587692557     -3.87931291705057     -4.20499872775916
  C   4.43564101894051     -3.63861321318488     -5.47616056941717
  C   5.88306051526858     -3.55110964993031     -5.26601793989685
  C   7.06372222374205     -3.49334772681416     -5.08008452393814
  N   3.47308531508400     -2.87608896510598     -3.31660400600659
  N   3.83976274762163     -1.59383346721328     -3.49983702712395
  C   3.54445360371706     -0.80467995178912     -2.53447184612240
  F   3.88585671034618      0.46769214583885     -2.71582826790279
  H   1.02810571715096      1.07635482671223      0.58919692392137
  H   0.53702839031410     -0.53713007819491      0.03760722302848
  H   0.86415723117924      0.73572150743690     -1.14491303907289
  H   3.25241422949298      0.77422876987663     -0.44718205420364
  H   2.52129478812477     -1.26892138469451      1.33377262552465
  H   2.07541847252388     -5.39018398839097     -1.73414121912913
  H   3.15953416630892     -5.99578873446416     -4.13666621197655
  H   4.08618660674584     -2.71199897136029     -5.93797125674407
  H   4.21851495586831     -4.45454643014241     -6.16670506039991
  H   8.11257000509636     -3.43615602512383     -4.91308159843166
