33
Coordinates from ORCA-job 22680optt
  C   0.66805068584873     -0.24284579869195      0.18796320473622
  C   2.16061687114136     -0.15985258945588     -0.08318572986071
  N   2.88359952597302     -0.83269868398898      0.98176376796362
  C   4.16403242334220     -0.87379690884276      1.02491380221723
  C   4.77835088040476     -1.57241107674492      2.16955667022279
  N   3.88965340024849     -2.05634794124180      3.10544748127954
  C   6.12156916219905     -1.66480606537767      2.29020399007410
  N   6.96522884635065     -1.10858955464665      1.35339802939488
  C   6.48972242958969     -0.46043629058591      0.25931245545182
  C   7.49627952516996      0.05773880479289     -0.73468202055333
  C   7.45610317834498     -0.75799889620700     -2.03168227706456
  C   7.31598679535019      1.55124864144584     -1.01999900183149
  O   7.00673769778049      2.33398516811076      0.11716372051424
  C   8.55760742432321      2.16385225520815     -1.65618393437592
  O   9.56624652446369      1.56640187240947     -1.90658854594489
  C   5.14846910613144     -0.34960501085132      0.10443267902454
  F   4.71656075744542      0.29442195773378     -1.00495583262627
  H   0.09966788599540      0.25830437748300     -0.59697835268696
  H   0.43192118214160      0.22663198784902      1.14345797554745
  H   0.35020155784156     -1.28482597914620      0.23764893524623
  H   2.46251415309202      0.88979042654247     -0.15444766034343
  H   2.38318997866622     -0.61526011787041     -1.05387095217962
  H   2.94209296133410     -2.06327235258878      2.74737693916416
  H   4.16563755166942     -2.87663315234452      3.61829824398198
  H   6.59854300232299     -2.15647365356925      3.12510741611409
  H   7.95782378520418     -1.23337726076090      1.44831989194465
  H   8.49139052688995     -0.06098771372789     -0.28989891351793
  H   6.47903745014816     -0.66307385021009     -2.50532113472841
  H   7.62882040754340     -1.81232510685254     -1.81738489868713
  H   8.22493691814773     -0.41813910824629     -2.72321181359813
  H   6.48005589379058      1.69861691834019     -1.70826390531547
  H   7.63036613985542      2.13411673679733      0.82445878836607
  H   8.47598537124984      3.25364796523880     -1.82516901792938
