32
Coordinates from ORCA-job 22695optt
  C   3.05862922303591     -1.15906383029140     -1.18515314733891
  C   2.49474300054573     -0.20193472771467     -0.13956440251098
  C   3.03001285923704     -0.53549318408316      1.28794448205405
  N   4.46857309130500     -0.72158377842837      1.38924813470393
  C   2.62223456587548      0.51463249922462      2.31962921200510
  C   1.11932923069362      0.75231112160629      2.43273039500603
  N   0.36037620161058     -0.39068887705111      2.94621996999191
  C   0.84854505867538      1.99937266388461      3.28488616649676
  O   -0.16930464760494      1.88080056658189      4.13526750565793
  O   1.47760189900872      3.01154278626949      3.16685317114761
  C   2.77136748150115      1.23400525158342     -0.49225859827878
  N   1.74730691900955      2.07941178645091     -0.51753634661004
  C   2.02116011890558      3.35945611879791     -0.77103295158684
  C   3.30097014916867      3.81701710824814     -1.01079870750658
  C   4.27696547248584      2.83571543930160     -0.96203353143827
  F   5.54170443648855      3.17198523845980     -1.17525345822287
  N   4.04897536394651      1.57603914631670     -0.71340739542959
  H   2.90380515629774     -2.19414382456793     -0.87311592835078
  H   4.12574345265561     -0.99105025134672     -1.32456181061968
  H   2.56604769381393     -1.01796432241966     -2.14734553981967
  H   1.40822969752415     -0.30452306348919     -0.11881878118531
  H   2.57030935216799     -1.49318135571309      1.55667783661569
  H   4.95574909689962      0.09631054218536      1.03561640829701
  H   4.77650235221445     -1.51037898989992      0.83418011492193
  H   3.10510307792575      1.46738671562666      2.08904288543100
  H   3.01190979138795      0.20149861882512      3.29233938752593
  H   0.71661036344424      1.01942380780791      1.45230817096283
  H   0.94030175389822     -0.98585920838011      3.52708514180288
  H   -0.02083748185452     -0.96052957021913      2.20353249042985
  H   -0.49587159163020      0.96380636573170      4.04128385144195
  H   1.17763646715345      4.03994444559267     -0.77841121119004
  H   3.53557039421317      4.84973476110967     -1.21655351440407
