27
Coordinates from ORCA-job 22697optt
  C   1.04292365018245     -0.18690525339210     -0.19690601101987
  C   2.53034306471625     -0.13692877667846     -0.07497587582806
  C   3.30931815556196      0.98782525243925      0.01577399584988
  C   4.66991923805704      0.61424138525666      0.09870927840267
  C   4.70660024622664     -0.75199041797866      0.05481620226586
  N   3.39337756761491     -1.22633277914965     -0.04637664072115
  C   3.16603781279921     -2.59747431606308     -0.11783160969235
  N   1.86640875718904     -3.01867481559148     -0.20687967146087
  N   4.10523648122665     -3.47358784663180     -0.15015931999569
  C   5.41704148180738     -3.06810711984217     -0.09477558609625
  C   5.76319784822595     -1.71763626271527      0.04278040167236
  N   7.04363901592928     -1.33136625732914      0.14518614709089
  C   7.92089345560464     -2.27774087244409      0.09453319129201
  F   9.20586329248535     -1.93184153641642      0.20402825007252
  C   7.62466792014254     -3.64456827532395     -0.06827916081720
  C   8.71523202000893     -4.66483480227735     -0.14564815295468
  N   6.36364280563824     -4.01397331649002     -0.15549325565474
  H   0.68588292251813      0.83409494800063     -0.31715820709965
  H   0.55684345856964     -0.58538635486290      0.69863993650399
  H   0.71227176944236     -0.76193996977465     -1.06192156480721
  H   2.91802964345391      1.99267922411455      0.01139541400499
  H   5.53351641326544      1.25322913882431      0.16417302711581
  H   1.15784097302642     -2.48450903218426      0.26450540881703
  H   1.78829929820338     -4.01896456472258     -0.10435420068834
  H   9.37908937204111     -4.45473270593309     -0.98581274623460
  H   8.27298696168562     -5.64985387024696     -0.26784033013323
  H   9.32689637437745     -4.64772080258729      0.75787108011590
