27
Coordinates from ORCA-job 22700optt
  C   6.10566670722287     -0.89780013996238     -0.95443220525696
  C   6.20692669083923     -0.46776417678148      0.48773071478014
  O   5.66323387774653      0.86099036829360      0.58535968360146
  C   5.77474375088553      1.44510108470084      1.79509156430421
  C   4.77831140868864      1.93636135818846      2.53471685191630
  O   3.45492130441607      1.94695749413958      2.32517544402316
  C   5.37567953431924      2.63163101730026      3.74843866229878
  O   4.76625386065023      3.17356114692715      4.62597198124299
  C   6.85107375207839      2.49622793873739      3.59850934692322
  C   7.06032960149021      1.81156372372949      2.47315158448408
  O   8.26730653444797      1.43814218078610      1.99288260785392
  C   9.28188198637759      1.76941198275206      2.86771209382585
  O   10.43537522948139      1.22211749380666      2.45166023676054
  C   9.08485828277813      2.45492468161648      3.98832806125833
  F   10.14685459939127      2.68324818072325      4.78249767019183
  N   7.86032317036687      2.92605373961340      4.48925334435737
  C   7.83777709754323      4.36957162281830      4.76819539300113
  H   6.49290117275683     -1.91046499261071     -1.06696438526088
  H   6.68690283699343     -0.23122350656130     -1.59040763370661
  H   5.06863569881733     -0.88310804775601     -1.28826840988649
  H   7.24400012135768     -0.45670468172607      0.82632563404406
  H   5.62904006427188     -1.12366855130820      1.14476808697017
  H   3.27077187634023      1.53495208334717      1.47114316645029
  H   11.13807568230670      1.47212948925416      3.06368154772417
  H   8.58912580840506      4.59153669120731      5.52214940866639
  H   6.85563519343948      4.61939939373064      5.16203389375444
  H   8.03539415658788      4.95585242503379      3.86329565567808
