27
Coordinates from ORCA-job 22718optt
  C   1.31484310573466     -0.11165157085068     -0.15215024950758
  C   2.73374785168666     -0.27162854556861      0.31184823739580
  O   2.88291863072932     -1.61387903650570      0.87197985921881
  C   4.19751687353328     -2.11665440643927      0.44672466694077
  C   4.75631011273497     -0.70070196244102      0.24130845546577
  O   3.69559570679138     -0.27033772391290     -0.66452689654372
  C   5.59289140257312      0.55822372775203      0.31196952264702
  C   4.71714510836360      1.47673054374217      0.83626534008489
  C   3.24464239522093      1.02730461274992      1.18815272103518
  C   3.06584400730083      0.86357338087018      2.62391345348435
  C   2.92237407825012      0.70250304262207      3.80229683222310
  C   5.05229223458008      2.87717256593422      1.06953933545058
  N   4.36085771814360      3.78339723180600      1.62935743155341
  S   6.65642642209824      3.44109514814365      0.54176644786349
  C   7.45656590800297      2.05345498683801     -0.07115142036739
  C   6.92402710138694      0.82304138257540     -0.13096440866029
  Cl  7.83384990933264     -0.49630455561797     -0.78181562708334
  H   1.04835786749344     -0.94641419543576     -0.79663138053480
  H   1.20089207984018      0.82539267423913     -0.69575574110434
  H   0.65435688790146     -0.10639113050741      0.71537994533901
  H   4.10378964041999     -2.71830283853311     -0.45330269455999
  H   4.63421589538829     -2.66511664330028      1.27579115714790
  H   4.46008308261510     -0.52868935163426      1.27489460081174
  H   2.59796374357027      1.84362735334254      0.85112700529466
  H   2.79364968147263      0.56692948092498      4.84966895032877
  H   3.46213806537969      3.43782628677936      1.95666697390245
  H   8.45970448945549      2.24779954242730     -0.42735251782625
