27
Coordinates from ORCA-job 2271optt
  Br  1.32860745026366     -0.23667274393506      0.69766206141000
  C   3.08667697948188      0.04173648368903      0.04760038570966
  C   3.62346326406837      1.30608287853793      0.00774550755820
  C   3.21327505051839      2.69321879699902      0.42010177215967
  C   4.00881681491690      3.51961478514279     -0.61518977931746
  C   5.35868454945510      2.82879053756493     -0.32200624071026
  C   4.94090242239759      1.38654762791376     -0.45043076635204
  N   5.66138494555205      0.34846132649925     -0.83111072131466
  C   5.00837493760366     -0.81761543764233     -0.78074536228000
  N   3.76486833186814     -1.01740554557600     -0.36215258861645
  C   5.48706649742098      3.10309024548228      1.20615001065067
  C   6.42914926747936      2.11043725070863      1.91522727307960
  C   6.52681194029068      2.37728509460742      3.35048575442853
  N   6.57205924862377      2.61015095373603      4.47140285271506
  C   4.01055415813569      3.00936833268051      1.71366105040257
  C   6.01397036860642      4.51028052334259      1.45569637913604
  O   6.35277880421480      5.27302083179804      0.59808652831280
  H   2.14402305238284      2.86789836244899      0.49416775202805
  H   4.02512942116916      4.58534038305241     -0.39397933677298
  H   3.66972330274824      3.35695298488602     -1.63713684988792
  H   6.22698777974483      3.12951528991679     -0.90005357788912
  H   5.55157336701347     -1.69590529107002     -1.10850292972510
  H   7.42861038270666      2.15081864439802      1.47606117639716
  H   6.06018317141785      1.09101674439154      1.78947960802271
  H   3.67765213428723      3.95910876438905      2.13716896740615
  H   3.88475882611251      2.24570029188344      2.48137103570701
  H   6.06191353151973      4.79616188415492      2.52424003774210
