33
Coordinates from ORCA-job 22728optt
  C   1.32444387348664      0.11287580095615     -0.16371714947090
  N   2.76107668741532      0.13531080948600     -0.36738311821289
  C   3.51399147729462      1.15647884028384      0.13385797262903
  C   4.79582498238703      0.80974283099265      0.44755467881711
  C   4.95506634204183     -0.66562230754905      0.25161077174146
  C   3.59637191756892     -1.11136530955658     -0.37138618965615
  C   2.94818173115341     -2.19570552425510      0.48136564406187
  C   3.74694260065838     -1.56580613480272     -1.85375524429151
  C   4.49599269414186     -0.53630309022100     -2.69498974572542
  C   4.42009630755015     -2.92704561479110     -1.95020433330526
  O   2.43865907360138     -1.74099737017199     -2.40222657286948
  C   5.71340478280953      1.77610464455768      0.94280085264180
  O   6.87191260632249      1.58589393697193      1.26868834129455
  C   5.05782695648247      3.12419766605478      1.04742256166796
  Cl  6.03575787067474      4.40958257557298      1.62961158653762
  N   3.84257264303991      3.40672981327676      0.76102516980306
  N   3.05911559786055      2.41444628933706      0.30115586971909
  H   0.85624263572758      0.96126669595419     -0.66804364256241
  H   1.04938560559892      0.13926134851710      0.89652846656131
  H   0.91785815830317     -0.79092895112308     -0.60816472458511
  H   5.13476118184824     -1.16601969206927      1.20654442808468
  H   5.80140825171973     -0.91034106456029     -0.38913780434285
  H   2.68483551340279     -1.79112887584228      1.46016607454451
  H   3.65800356753703     -3.00668903109384      0.63947736093864
  H   2.05707967468116     -2.60925538189704      0.01002921666391
  H   5.55052045344547     -0.47365116111519     -2.43116177705688
  H   4.05694935018857      0.45736522324166     -2.58270964913455
  H   4.42921913821109     -0.83201818066208     -3.74230936133196
  H   5.36103946380147     -2.94253763738632     -1.39815478198900
  H   4.62643243736776     -3.15638443015405     -2.99513051253396
  H   3.76599244982075     -3.70319620930424     -1.55588659218529
  H   2.11488408737230     -0.87686535750170     -2.67719077687720
  H   2.11914988648464      2.69260484885414      0.07671298042428
