25
Coordinates from ORCA-job 2272optt
  Br  1.20386228904530      0.48620052163899      0.27688856387379
  C   3.04491777146375      0.26477436740042      0.04995584495146
  C   3.91533234535305      1.26684842355568     -0.22148687908468
  C   3.76786110316434      2.75586296901818     -0.40184119577556
  C   5.24091029790394      3.22983310295980     -0.43211884304481
  C   6.06810237035651      2.03833185345583     -0.91646233034819
  C   5.25985765028689      0.84478762844406     -0.47162273208559
  N   5.73760250856879     -0.35253655793817     -0.39036673994902
  C   4.87140412304093     -1.37264284041492     -0.03760610887521
  O   5.17519689836157     -2.52693912718479      0.10917074986036
  N   3.51445177132848     -0.99658782825992      0.13684300619932
  C   5.49001347122537      3.65622536630790      1.04109777348628
  N   4.18653907255119      4.07779716996239      1.47861813686412
  C   3.15680333459228      3.48943853818749      0.79569302809791
  O   1.98924388471197      3.56223878356650      1.07580126734271
  C   6.07120496814617      2.57956117405681      1.95259461001171
  O   5.54962922806329      2.24844546906398      2.97745454407270
  H   3.20198765494464      3.00688299768395     -1.30027544075030
  H   5.35926815235253      4.10665299158829     -1.06451184815316
  H   7.09704490651303      2.00135725080351     -0.56434459586557
  H   6.10304251592704      2.02529138134756     -2.00904268193069
  H   2.88533359459248     -1.75738642542719      0.35362941760347
  H   6.21087921159570      4.48145300671682      1.06461372076712
  H   4.02261113937123      4.36778131148541      2.43179780446401
  H   7.04189973653945      2.15132847198137      1.64252092826783
