33
Coordinates from ORCA-job 22729optt
  C   3.79298013186559      0.94730470609335      0.87495198142921
  C   2.57127763615751      0.60892647009931      0.02630541959272
  C   1.63989894286981     -0.28428082053037      0.84942787039686
  C   1.82593697526980      1.88133544777614     -0.37232367369214
  N   2.92338896453978     -0.16516489215136     -1.20685046040868
  C   4.23425207023355     -0.51734923852924     -1.51527516879277
  C   5.19634600739148      0.35461901906614     -1.90116757993760
  Cl  4.83608217416139      2.00292546884627     -2.26706674521552
  C   6.58317849776002     -0.02728708058696     -1.92551140059258
  C   6.90370427467026     -1.23236720299068     -1.44652221497491
  O   5.98111582750961     -2.13769945283322     -1.07783512216592
  C   4.65297103568682     -1.93984112208205     -1.40292969495275
  N   3.98580635943753     -2.99841687767204     -1.53116613045873
  C   2.64497834981381     -3.00128552285313     -2.00949056704878
  C   1.99912459411494     -4.33990406069616     -2.16903933050492
  C   1.54620186175792     -3.42904257688692     -1.06939604819102
  H   3.45487471298476      1.44162173583366      1.78668554671603
  H   4.47606030178342      1.62299567286030      0.36344261448269
  H   4.33857270344769      0.04527912763141      1.15869100466995
  H   1.29510900709903      0.24204066437572      1.74022755408636
  H   2.15843051610688     -1.19433823305751      1.15878232506457
  H   0.76073064237979     -0.56721468384595      0.26480697504724
  H   1.49663794355794      2.42360659094059      0.51647646649650
  H   0.94793209182957      1.62897713667689     -0.96863861345421
  H   2.46363439742274      2.53415651779711     -0.96466962471883
  H   2.30560657498769     -0.95817768054933     -1.27262866460900
  H   7.34412469128236      0.67063016224896     -2.23499158114577
  H   7.91036856145230     -1.59023504378515     -1.28957892666132
  H   2.39450658451513     -2.25754228489255     -2.76111643280639
  H   2.61050591311814     -5.18611555158606     -1.89124324288472
  H   1.34003804440505     -4.48923482378124     -3.01185177810101
  H   1.85025159329104     -3.67230816707995     -0.06148176509365
  H   0.58037201709657     -2.95061340385594     -1.16002299157089
