29
Coordinates from ORCA-job 22724optt
  C   0.84781370742742      0.51717581385391     -0.36286415794328
  C   2.34742216109294      0.40105687323968     -0.16619948937046
  N   3.00761958660180      0.23853581431895     -1.45442531424753
  C   4.44073229073868      0.14558048075030     -1.43622234988289
  C   4.95220814011606      0.11122845834153     -2.89455390366115
  N   4.55936582286282      1.32072538463623     -3.60349283048105
  C   5.15757433973035      1.29585254348980     -0.68414098791626
  N   5.03575987278855      2.53354191367001     -0.77363986652419
  O   6.06749679056006      0.76469058055622      0.22054974027806
  C   5.89997419531931     -0.57385550135954      0.21182260410192
  C   4.98417711811020     -1.03118521457312     -0.66529291397412
  C   4.74923688193484     -2.43268513119864     -0.72744972815004
  Cl  3.59841420872385     -3.07595970819429     -1.83545300015752
  N   5.37003502135364     -3.26868700776776      0.02625448441938
  N   6.26799939891922     -2.76714047232774      0.88326050209805
  C   6.64931808085566     -1.45107397124197      1.09864070041351
  O   7.48286338753845     -1.14180740298033      1.91714277219727
  H   0.34240092631353      0.62628163494262      0.59610294066505
  H   0.46081801100275     -0.36902410176333     -0.86533707030768
  H   0.60300280093061      1.39017954021830     -0.97128627991885
  H   2.57257259100506     -0.48078604693020      0.44013352214420
  H   2.72325622267620      1.27400201947607      0.38559031107706
  H   2.73484489275239      0.95489992019899     -2.12019196313787
  H   4.47858778263149     -0.75057790838298     -3.36442988958730
  H   6.03382705462204     -0.05417600564737     -2.88509356818469
  H   4.36068007486686      1.13230746484761     -4.57575066807429
  H   5.28061104184244      2.02937352143423     -3.56490840463999
  H   4.32111112727756      2.75783431636911     -1.46538351607213
  H   6.73227646940516     -3.45830780797631      1.45661832483681
