31
Coordinates from ORCA-job 22723optt
  C   1.02063881814600     -0.40929660708389     -0.73999814929004
  C   2.48549374231704     -0.21468123945913     -0.52532897756926
  C   3.04981862256782      1.00721873542744     -0.44004622377197
  C   4.47603931073951      1.19011955102623     -0.25196969686095
  O   5.23080377029907      0.04288440597887     -0.17982995723994
  C   4.67296998848872     -1.17300583391594     -0.24605686941752
  C   3.35878532999667     -1.36176554249629     -0.40775764781125
  Cl  2.72522610011705     -2.96359406906470     -0.47871309157123
  N   5.13627556231490      2.26443823208649     -0.15101094738672
  C   4.45077142190098      3.53963613870325     -0.18925298785195
  C   3.91769295403710      3.87771030040937      1.22133502961594
  C   3.31393820987584      5.26413897544977      1.43046616746056
  C   2.05034411532212      5.54610661512624      0.63019561240557
  O   2.23360139080017      5.48996916094542     -0.76933786500580
  C   5.44522892646806      4.60436769954014     -0.64694676270880
  O   6.72135608791276      4.25581118118760     -0.57889885503444
  O   5.09971336409127      5.69604068177889     -1.02004897623045
  H   0.51152467104300      0.54844434797978     -0.81628030472418
  H   0.58839984450915     -0.98326008342022      0.08136287090288
  H   0.84674061683706     -0.98269964895739     -1.65204110179671
  H   2.43691497221592      1.89443584494835     -0.51837452459675
  H   5.39735458694421     -1.96887241181012     -0.15396057292508
  H   3.63094220218442      3.57384284447104     -0.90834925280705
  H   4.74733509779036      3.73127155479538      1.91798536663526
  H   3.17168917415938      3.11415198421302      1.46493172480033
  H   4.05653567818051      6.03624403864840      1.21723190007895
  H   3.06380597504996      5.36219376292818      2.49036022775211
  H   1.65723249891331      6.52563521446139      0.92521111131491
  H   1.28358663942903      4.80380583745200      0.87173143491803
  H   3.10855591477131      5.84904211506399     -0.98518582104374
  H   6.73768441257722      3.30866621358639     -0.33142286024070
