25
Coordinates from ORCA-job 2273optt
  Br  1.37595115358396      0.87880620038334      0.42155948803808
  C   3.18356668862431      0.44173683696069      0.33473052366543
  C   4.16557329278152      1.29655838611868     -0.01096003198408
  C   4.14674760962300      2.76603309593746     -0.37325454610054
  C   5.64522492544820      3.14482214179644     -0.38771424959092
  C   6.43667231819225      1.86322526244474     -0.65745038753323
  C   5.50559474487224      0.79053595915946     -0.16347926668986
  N   5.84986335897446     -0.42588487389882      0.06152373068178
  N   4.86897814676642     -1.23521545024649      0.47536238617624
  C   3.52500840160272     -0.95576579375644      0.64644655400573
  O   2.75175559251492     -1.80902583310386      1.01921758379968
  C   5.83001186742446      3.73584472325566      1.03460215457535
  O   4.55791385695630      4.28164841641104      1.38001123517891
  C   3.55467407738732      3.72635471655938      0.63884475680771
  N   2.34835452348061      4.03796269163586      0.74647391869395
  C   6.25506976647412      2.76213238729138      2.04583689950314
  C   6.61661705414429      1.96882953575882      2.86541821444107
  H   3.63906533791632      2.90719697552636     -1.32829226163480
  H   5.85155592935334      3.93071422365145     -1.11104401179337
  H   7.39897037699694      1.83377653153758     -0.14819724118685
  H   6.61281140607710      1.74098929222046     -1.72773407550496
  H   5.14461071929319     -2.18901269149939      0.66228318502982
  H   6.53930660735663      4.56334946972742      1.02580836121408
  H   2.21205724281650      4.72328191092213      1.48893769790551
  H   6.93004500133880      1.26110588520661      3.59606938230214
