27
Coordinates from ORCA-job 22731optt
  C   1.14962995664197      0.57427531881468      0.34338054993813
  C   2.61639356011232      0.28316539616406      0.19602635289981
  N   3.44743371094359      1.31731385449844      0.34149113070925
  C   4.75605593906073      1.13173853226649      0.23516875852129
  C   5.62757583490739      2.35799617840604      0.39505751498456
  O   4.89502935794077      3.49495629170152      0.74391421838622
  C   5.31307883326478     -0.11428654886986     -0.01498852001288
  C   4.45218479489600     -1.18363842883546     -0.16252608606518
  Cl  5.12078401546337     -2.75353072501575     -0.44324972657337
  C   3.07185400944439     -1.01115758416013     -0.07447454292471
  C   2.11661214355773     -2.16228650244346     -0.21248745642217
  C   1.89531914512177     -2.86197772004881      1.08765035892223
  C   2.36002345062900     -2.58880260032863      2.30350749949970
  S   1.78592562751656     -3.74675482094257      3.47134340678038
  C   0.89453287692607     -4.60083559388156      2.19771526830210
  O   0.22792044095553     -5.57462547808411      2.31217059301917
  O   1.08212624545802     -3.95954972620681      1.00559253686399
  H   1.02148244548606      1.59138069510001      0.70307635100905
  H   0.67760403883572     -0.11647049911066      1.04404617990470
  H   0.63536132958141      0.47855642625969     -0.61553696712810
  H   6.16007260397197      2.52441581829542     -0.54928614735594
  H   6.38429308349391      2.15673052414302      1.16072163342992
  H   3.96009237269028      3.24221269699666      0.71791432375953
  H   6.38391771164187     -0.24897730090900     -0.08587120386386
  H   2.49392647033472     -2.89141116933419     -0.93213764545712
  H   1.15221996263691     -1.82000052942562     -0.59261171573075
  H   3.01355003848708     -1.77443650504941      2.56739333460405
