23
Coordinates from ORCA-job 22748optt
  Cl  1.37805484181884     -0.81435876377047      0.31023721824222
  C   2.96844446597318     -0.21816332853809     -0.00628024017836
  C   3.22962917280003      1.09876254709756     -0.01186874593305
  C   2.14888146022977      2.15011524029621      0.18909319988540
  N   1.55484032707711      2.13844816529553      1.50671685424367
  C   1.32223212836928      3.39391749361843      2.02198178927052
  O   0.70941441523456      3.64457557275593      3.01786392673563
  N   1.95356858418143      4.36059355477298      1.17105429394440
  C   3.41430872330515      4.16367465791652      1.19575860708091
  C   2.60380454466623      3.60424435763362      0.10157890642033
  S   4.87912962346948      1.60038043563313     -0.31065766772173
  O   4.90368906820556      2.58606281499378     -1.35380090626110
  O   5.55679572513410      1.89221826417538      0.91935943547948
  C   5.55466760657561      0.09657976203968     -0.93969706692251
  N   5.05353556026635     -1.06553254008429     -0.82935697570881
  N   3.84727562078129     -1.22740911632533     -0.27451066391700
  H   1.38939365065527      1.97821241006950     -0.58210092030240
  H   1.06877959084875      1.34494410950189      1.88940991456996
  H   3.81158810116696      3.49048877753175      1.94490597804941
  H   3.99490904352501      5.05457895444837      1.00531163161856
  H   2.62973893280629      4.06108102818010     -0.87597421297426
  H   6.52077619383574      0.20354022311516     -1.41943994268382
  H   3.51154261907396     -2.17695462035736     -0.27458441293746
