25
Coordinates from ORCA-job 22747optt
  C   0.87433725332511     -0.44171654973039      0.67265244197659
  C   2.34287265831913     -0.20295489081861      0.32060807634591
  C   3.23463852062924     -1.28858182903567      0.80790743566724
  C   4.08949102118621     -0.96089424758470      1.79108248381427
  C   3.94793907249660      0.47892954701442      2.17049573795070
  C   2.99337501140118      0.98242777350534      1.07120733319627
  C   2.40019865048483      2.31761167466600      1.10242337086956
  O   3.50216228682275      2.02208513708777      0.25806196037311
  C   4.77813288018451     -2.17703356425212      2.10369797636162
  C   4.23643641072996     -3.14539754896171      1.23784846381080
  O   3.28157230689445     -2.59930150042520      0.44469781494647
  N   4.57826092162544     -4.40805048535789      1.17076615074460
  C   5.53308722931794     -4.73785819269864      2.03497155981417
  N   6.13923621318662     -3.93089914932384      2.91029036422268
  C   5.76746049413097     -2.67167334965052      2.94062760660031
  Cl  6.54517985700209     -1.61393526334624      4.06236072011415
  H   0.51725438893342     -1.36460559519245      0.21530926025251
  H   0.25327112665127      0.37870488665824      0.31432285365528
  H   0.74991731921344     -0.52545668984117      1.75338390318694
  H   2.44963217200241     -0.03286791816956     -0.75331003737162
  H   4.87871025964438      1.04508501277557      2.13036903184441
  H   3.52070173834717      0.59946133504970      3.16831725920804
  H   2.62229137071251      2.97450178778637      1.93722410369487
  H   1.46356105375232      2.50613893987312      0.58873955680125
  H   5.85727978300602     -5.77071932002783      2.03194457191984
