31
Coordinates from ORCA-job 22741optt
  C   1.00308937163795     -0.11630508451616     -0.11756088935614
  C   2.47987164234818      0.07027625837629      0.11464838930686
  C   2.81515261494232      0.52381935030486      1.52928271463446
  O   4.13712038623594      0.20643048320436      1.90535447707506
  N   3.42119484907444     -0.91558718430549     -0.41970943936121
  C   3.33422467266220      0.41088033470125     -1.04392321420784
  C   4.57963148111658      1.28265191287096     -1.00024288069133
  N   5.51271906492572      1.02461721951127     -2.09501267205731
  C   4.24421768849775      2.76010795585093     -0.88758268857387
  C   3.63694982580074      3.50562246314031     -1.89704212073341
  Cl  3.13672357803673      2.70865078511176     -3.38108101012679
  N   3.37348767359568      4.79008757013525     -1.88684858825191
  C   3.72831172078116      5.45929133132242     -0.78895279224001
  C   4.32022941746150      4.86468705186983      0.29750972076389
  C   4.58242347283175      3.48645231578827      0.27373052893405
  N   5.19282738760002      2.90577910664065      1.35244739403257
  H   0.60419351967185     -0.89573521503173      0.53524325600073
  H   0.80129091668598     -0.38967007555797     -1.15358189759194
  H   0.46531439552758      0.80953478069213      0.09546936573905
  H   2.10904197070355      0.04989974831559      2.22031707479383
  H   2.68781151372045      1.60699743622156      1.61355872845083
  H   4.37791729181979     -0.57670011754819      1.38370056510589
  H   2.95242420956282     -1.62912681532769     -0.96659742156271
  H   2.81187678327237      0.45024423451292     -1.99318296481786
  H   5.12530688325747      1.00666682273249     -0.10321032893576
  H   5.07247265700344      1.15028351986766     -2.99782116308898
  H   5.84209789603781      0.06783410092979     -2.03894942105211
  H   3.51507311695636      6.52204667887888     -0.78911574614805
  H   4.58166455912901      5.45031613033877      1.16957317908041
  H   5.28669936126837      3.48387316658119      2.17018493102116
  H   5.05264007783442      1.92307373438782      1.55139491385847
