36
Coordinates from ORCA-job 22743optt
  C   2.00452593445586     -0.92897587172272      0.77530981600700
  C   2.49002014081233      0.03484939160020     -0.31244667673366
  C   1.41436977941493      0.18636169695083     -1.38435426710102
  C   2.92803092154481      1.34858668469140      0.31337804572787
  C   2.10964395076854      2.46316831154965      0.24165445732459
  C   2.44575859917818      3.68579581619836      0.82449489724652
  C   3.63431884234795      3.78763937370941      1.55650041073590
  C   3.98458962650505      5.10194041799845      2.18373152428885
  C   4.16856985038806      6.18284592253742      1.11739302053618
  N   2.89101438147983      6.65697926559291      0.61393089282436
  C   1.71557909896635      5.96327550285142      0.57001629486527
  C   0.52061933353512      6.85059841940932      0.32229285970010
  N   1.50129049249545      4.70487939804841      0.66702696803481
  C   4.45029031856407      2.65846812762295      1.61531549697420
  Cl  5.96007567574805      2.76076164109887      2.49739503273164
  C   4.14261295502378      1.43761026992406      1.01583260337227
  C   5.09945595001914      0.28237756752071      1.14560769664301
  H   1.74007467931650     -1.89700469450576      0.34547090451051
  H   1.11678730556295     -0.51568656728356      1.25868839989559
  H   2.75950928898861     -1.08795653003232      1.54562270326143
  H   3.36033284320714     -0.40849602489813     -0.80232292144931
  H   0.46284659648795      0.50332185851689     -0.95391659635379
  H   1.24716107604314     -0.77480163269544     -1.87224695151186
  H   1.70346874851676      0.91247004599241     -2.14492585514665
  H   1.16718820923718      2.42776650124067     -0.28641125521731
  H   4.89653403377751      5.02040059495055      2.76786337735002
  H   3.18315495418412      5.41501709600705      2.85875392020443
  H   4.79159400592160      5.79072127008980      0.31021463755201
  H   4.68474843583101      7.04529305067968      1.54187182199459
  H   2.79879146054216      7.65264548296092      0.50985053869621
  H   0.62786215161155      7.37199901201979     -0.63136038513305
  H   0.42620107954585      7.60257991277935      1.10816424354337
  H   -0.37540615214419      6.23976175887975      0.29631155872636
  H   5.21324882627345     -0.00946470148182      2.19187865684573
  H   6.09170611343263      0.56319930374715      0.79002359066093
  H   4.77143049241646     -0.58892767254877      0.58839053839285
