25
Coordinates from ORCA-job 22745optt
  C   1.37075621060059      0.13961766880190     -0.65984114797058
  C   2.74804595873026      0.08087571440261     -0.01707346484774
  C   2.99561214670467      1.18360027193177      1.04629703602038
  N   3.81131191045931      2.30246296797632      0.57124473828366
  C   4.92469191679398      2.23973986316082      1.16934470439160
  N   5.15750017282159      1.17347745940698      2.08970052464407
  C   4.30356214576667      1.28084307054743      3.28728339284897
  C   3.84154067468072      0.50643807390334      2.12706694762107
  C   3.69491905589446     -0.95265151648807      1.94431489141814
  C   4.06421228376132     -2.01409527949924      2.74395352571267
  N   3.81381638455980     -3.27880448169288      2.39753334367814
  C   3.19189503693239     -3.49142288773564      1.26102031898410
  Cl  2.86791681281908     -5.14984184780852      0.85323724551031
  C   2.77467124034674     -2.50133639984199      0.37164947695216
  C   3.04391819223951     -1.19846039819664      0.73563860342126
  H   1.22079513257312      1.10917688715049     -1.13564663620022
  H   0.59105500680972     -0.00265637065416      0.09070015669377
  H   1.25339312254018     -0.63132697484853     -1.42207367945141
  H   3.51184248488970      0.19789506553762     -0.79228369545294
  H   2.03925672525060      1.56423459769206      1.41226375561586
  H   5.73055497983587      2.94428592315328      0.99611846648243
  H   3.82912764192497      2.23864921941930      3.47342393315218
  H   4.69600401481511      0.77186646239055      4.15790234762308
  H   4.56934598726068     -1.86683818519049      3.69216801718245
  H   2.26625476098892     -2.76572890351832     -0.54494280231343
