27
Coordinates from ORCA-job 22750optt
  Cl  6.84467553040732      1.93474720542468     -4.49834841636219
  C   5.70386345762936      2.48215972746114     -3.32313180214837
  N   6.08078700831854      2.48863011335410     -2.06625514176274
  C   5.19552382599845      2.92131607225995     -1.17657107733864
  C   5.58987765562771      2.92682506667277      0.28089442966573
  O   6.96682526334268      2.65003815535258      0.45662379960094
  C   7.79978552827271      3.60619615971553      0.02068323229718
  O   7.43290419652317      4.68176944528778     -0.36223298287592
  C   9.23206947426009      3.14768079010209      0.02802402918118
  C   9.59399537396253      2.46501928372438     -1.30587388263566
  C   11.06178284389764      2.83243840882085     -1.48238135520374
  O   11.82408904076665      2.36003710077651     -2.27549171513678
  C   11.38915845509394      3.91573502538473     -0.45698616403731
  N   10.12794875979847      4.29555607604965      0.16600862558261
  C   3.93311139625405      3.34640015666188     -1.57407105681624
  N   3.55933812277460      3.32895420381262     -2.84660964102152
  C   4.44033077223095      2.89712967181651     -3.73468002644499
  H   5.06362895355629      2.13665166858264      0.81524708419447
  H   5.33610253362732      3.89087182555395      0.72434401849941
  H   9.38031815211338      2.45399405406171      0.85811679897734
  H   9.03182060684685      2.91289803254663     -2.13108515692390
  H   9.43817524413678      1.38926568023944     -1.33727989870111
  H   11.89549864922038      4.75757674265688     -0.92565564436970
  H   12.07568835729582      3.48417801678938      0.27889850347063
  H   9.70664896350734      5.08672036819734     -0.30961194256689
  H   3.21394963600563      3.71304529735872     -0.85020103806202
  H   4.15810219853116      2.87916565133547     -4.77937357906174
