24
Coordinates from ORCA-job 22756optt
  C   3.19800629707563      0.74985111926152     -0.75032917148064
  C   2.25696701399117     -0.04273625300649      0.11613786556580
  C   0.98501726020308     -0.54245618922904     -0.42974398825838
  O   2.09742907799744     -1.40633148207182     -0.25496406236076
  C   2.33851720760573      0.12895407459850      1.60325724739321
  C   2.43891212670283      1.30599645135866      2.26341613476275
  O   2.44575977663430      2.49798344991112      1.57244678532733
  C   3.65735383534366      3.13969373193160      1.49877095062914
  N   3.83833977092133      4.20473778134143      0.87429840635748
  C   2.46902646962809      1.36292965106776      3.71526051217317
  N   2.53388333555577      2.40351099147387      4.44812989199895
  C   2.40682345463269      0.01223707075303      4.30796280345013
  Cl  2.44981468663696     -0.10296026923867      6.01636957060798
  N   2.31103118852226     -1.08341158896001      3.65336935009243
  N   2.26788961310488     -1.01874552145405      2.32238383100221
  H   3.15436469650529      0.35164781102259     -1.76282597817167
  H   4.22214173644071      0.66384641010438     -0.38455463867371
  H   2.92406025288138      1.80253115847116     -0.76929073630434
  H   0.73853620653790     -0.31398227295897     -1.46048751543966
  H   0.15227864386590     -0.72203328452027      0.24143121864560
  H   4.46169848043330      2.62726549886830      2.02598020300590
  H   2.97449067264232      4.54081881048737      0.44652925143025
  H   2.54237952252877      3.25161853074501      3.88375152732362
  H   2.21827867360858     -1.89996567995700      1.83370054092322
