25
Coordinates from ORCA-job 22751optt
  C   2.74168988908462     -2.60913934242588      0.71869328341589
  C   3.88510651109487     -1.69076993700630      0.37361520984479
  O   4.51448322755962     -1.79959398831416     -0.64712572256317
  C   4.21057593682924     -0.60969195773790      1.38727956796059
  C   5.27330905022412      0.35634862526373      0.86979161100257
  C   5.68696641806917      1.34915665172672      1.90848130071310
  C   4.98103962064640      2.47956360704884      2.27172538683580
  Cl  3.49862504333672      2.82745695692689      1.43434035819411
  N   5.34380293706110      3.34062653916411      3.21989716257574
  C   6.45206177368718      3.08763027060926      3.86847358689059
  N   7.01205299961953      3.81057816577938      4.86363576512103
  C   8.11986690551315      3.14266230294017      5.17035120292572
  C   8.36114238090864      1.96149298270871      4.41722080018558
  C   7.28191081936789      1.91474684486126      3.56868595892639
  N   6.83760781679403      1.10470370830424      2.58783483234343
  H   2.66534626902440     -3.40244025568737     -0.01980710483584
  H   1.81292805911723     -2.03478835979689      0.73868833297315
  H   2.87937196931633     -3.03157852816724      1.71557968249640
  H   4.54280823239307     -1.10379934582556      2.30671260153394
  H   3.29325356440878     -0.07561582576177      1.64854427320025
  H   4.89010854879245      0.87719245406157     -0.00691044280720
  H   6.14303650554781     -0.21241491365113      0.53452558914366
  H   8.77064157332426      3.51231468331915      5.95254399307098
  H   9.19462990112903      1.28585261399909      4.50674680074515
  H   7.37663404715027      0.29050604766106      2.32247597010729
