29
Coordinates from ORCA-job 22766optt
  C   1.20537440537722     -0.37895828913940      0.76116982899172
  C   2.61902971795743      0.14584096222688      0.55069453773255
  C   2.81486779202445      0.65307301231525     -0.87375202439951
  O   1.95686187143869      1.75219079132463     -1.07965717439667
  C   1.56126208199433      1.96717095913136     -2.38125590065088
  C   2.04615593421607      3.01873085641202     -3.07933873856011
  O   2.96660678365675      3.87644261770462     -2.68999543283800
  O   1.58340501068971      3.31481833668602     -4.29863938990917
  C   0.59892229832156      2.58706539193782     -4.95722724198175
  N   0.21366537748312      2.93243979496421     -6.10317404434833
  C   0.08689938291651      1.44017976654531     -4.21414795337724
  Cl  -1.12656036386460      0.49383544864783     -4.97036006066465
  C   0.54568373545231      1.16384929381385     -2.98135178267226
  C   4.25646023563502      1.08001404162629     -1.10998919286633
  O   4.61952236694796      2.21539842398585     -1.29182432045446
  O   5.08166602536618      0.04470974850742     -1.07394498998004
  C   6.46737304392902      0.33214968096076     -1.29146092501438
  H   1.07657430815524     -0.74647615043115      1.77853354335628
  H   0.99393340670080     -1.20377175018455      0.07712731440467
  H   0.47171592292822      0.40716598848228      0.58665552633066
  H   3.35466483229189     -0.63697503903724      0.73871829532228
  H   2.82867569272544      0.97069595859849      1.23611186479432
  H   2.58839292559309     -0.15190439032193     -1.58303296354868
  H   3.48444782901791      3.46916262307244     -1.96342340341856
  H   0.70685089409371      3.76221717049969     -6.42466761007295
  H   0.14180979739278      0.32900318123615     -2.42081176768689
  H   6.97856940073075     -0.62246920843692     -1.22415442215660
  H   6.83111006287264      1.02090505569135     -0.53172297321662
  H   6.60405922795574      0.77549572318066     -2.27607859871837
