23
Coordinates from ORCA-job 22769optt
  C   0.99801310152167     -0.13603163947657      0.07447858161509
  C   2.48747040046320     -0.08292481819500     -0.00279972540424
  C   3.26034944984702      1.06885503010285     -0.02805946603546
  O   2.83931778232946      2.38471182723299      0.05928894304230
  C   4.61675283914020      0.69838065634640     -0.08734897261609
  C   5.82009892373232      1.37535124527352     -0.10894800243574
  N   5.90350675249023      2.72218007863220     -0.10558715428199
  C   6.98338111044748      0.54600431398619     -0.15475976195562
  Cl  8.53946544826879      1.31014594477259     -0.18083365505609
  N   6.98958760419384     -0.75658834878992     -0.17451799815008
  N   5.83634530854547     -1.37417020611440     -0.15174886818205
  C   4.63647846177285     -0.74437443216929     -0.10800105138288
  C   3.34754738161529     -1.22621347254165     -0.06571807177246
  N   3.01965099291687     -2.61125223365365     -0.06457431340671
  H   0.59492668499007      0.79751595363449      0.46846526430982
  H   0.67174527094324     -0.94831460126529      0.72656042967439
  H   0.54736075957272     -0.31183544708895     -0.90647957283755
  H   2.20769227454812      2.56638951014354     -0.64304346611806
  H   5.05609709326512      3.24711204155394      0.03646925688113
  H   6.79346542030667      3.17494067829669      0.00339263876884
  H   5.87932643556167     -2.38305195789095     -0.16430878222301
  H   2.56228663476318     -2.90293116531344      0.79112883784888
  H   2.42313386876442     -2.87189895747628     -0.84005509028243
