20
Coordinates from ORCA-job 22768optt
  Cl  1.20535111653600      0.03666773099697     -1.11746339526187
  C   2.81274599014755     -0.03093172640265     -0.52813937634912
  N   3.36881656878792     -1.16311479792644     -0.30717011662380
  C   4.66528837489926     -1.21593602600356      0.16872854865065
  C   5.15173744787640     -2.62081978504709      0.37607345667125
  C   6.59841093160683     -2.85363595151332      0.69255943270803
  O   7.45081047368187     -2.02051313909984      0.85805938438253
  C   7.02482084300759     -4.32431053100592      0.81987396980288
  O   6.26849187466185     -5.23601506600342      0.66914530017621
  C   5.38233755498152     -0.09783442509626      0.42098526384521
  N   4.77338902685892      1.11290511759087      0.17653764979316
  C   5.17522917484537      2.40577000751500      0.29590732525335
  N   4.21112305638283      3.20759187664558     -0.08222238097853
  N   3.14713565467622      2.46670431223891     -0.45939528022471
  C   3.48694644462444      1.20841224877810     -0.30329263776978
  H   4.90729506329786     -3.21757065379076     -0.50856823046148
  H   4.56699879914053     -3.10172235678281      1.16939544218922
  H   8.09485710453067     -4.44989732044357      1.06207469285216
  H   6.39484729995546     -0.08718343627979      0.78636684935576
  H   6.14836719950081      2.70043392163001      0.64954410198886
