25
Coordinates from ORCA-job 2277optt
  Br  0.96132514213172     -0.81714204701109     -0.47829034150431
  C   2.80491466984742     -0.42741249529897     -0.29175727836027
  C   3.29044842966257      0.85783031991600     -0.15966769680795
  C   2.38441322657380      2.05378050145043     -0.15703208263232
  C   2.57462342092665      2.91925910426193     -1.43413841444611
  C   3.55888987535512      3.79082721376243     -0.63135158755700
  C   2.87976849367096      3.27811088631650      0.65620864853484
  C   5.00117925185422      3.30647800358808     -0.71875327031047
  O   5.30339450707318      2.19235942729365      0.11559310348472
  C   4.71847899067407      0.98558273233085     -0.07057207734562
  N   5.55926266022691     -0.01431357406684     -0.06590956741044
  C   5.04892064213877     -1.24722226652998     -0.16359064620541
  C   3.68478046862697     -1.50954242915490     -0.29240426847469
  S   3.44678188525551     -3.20375451947453     -0.41671314397629
  N   5.06434909405943     -3.55677008662916     -0.29642893935369
  C   5.78058201350146     -2.48420194313984     -0.17218769581897
  H   1.36781836297469      1.73800235701120      0.05316930194916
  H   1.66007012220589      3.45894409775529     -1.67582014955245
  H   2.95059423563572      2.41739908786978     -2.32643154681767
  H   3.53141753686758      4.86244417543657     -0.82781933702231
  H   2.03009321478373      3.89975294038083      0.93330806279744
  H   3.50638895824750      3.09923888729174      1.52675222344623
  H   5.67762740178080      4.07972964443954     -0.35912902315939
  H   5.27062828217508      3.06637108706023     -1.75260338419830
  H   6.85724911375020     -2.55375110485976     -0.08343088925874
