28
Coordinates from ORCA-job 22776optt
  C   3.27335477659400     -1.07629994266689     -0.62692737442519
  C   2.49713373812705      0.03900751951587      0.03416009847800
  C   2.46256404209440      1.37037056323009     -0.65742826387260
  C   1.23977821035553      0.49598173467254     -0.64298030959585
  C   2.46729860619885      0.04315812645197      1.55751168183364
  N   1.81319498975020     -1.11063675093764      2.15986574073548
  C   3.86899511961873      0.14984756860007      2.18294155503432
  C   4.59442298997919      1.35746186500084      1.71052936729289
  C   4.51704521777588      2.60279550393000      2.19685705017045
  Cl  3.53646378191284      2.96319855817761      3.55100513167053
  C   5.25021722188673      3.71350592385105      1.56161636570306
  O   5.23851671680796      4.83902168552334      1.96801661794603
  N   5.97702404828393      3.35184535271698      0.40193687339681
  C   5.98576732174134      2.14964966543788      0.03777799104119
  Cl  6.84272563621236      1.63289328856126     -1.35354471335805
  O   5.37625304720041      1.10930067855220      0.61490639384982
  H   3.15880349451300     -1.02233640095677     -1.70995193186598
  H   2.90921955673924     -2.05588204419575     -0.30865179388217
  H   4.34055272167836     -1.01534131217711     -0.40733816996085
  H   3.00651978907821      1.46913702081551     -1.58773557767135
  H   2.43677593552485      2.26680756496574     -0.05037092977492
  H   0.95541055218153      0.00445250035047     -1.56310259957198
  H   0.40969146225372      0.81141854620439     -0.02373576959635
  H   1.90662053698896      0.92938861146460      1.87252190785257
  H   2.30057357719147     -1.96655321080368      1.91637432364705
  H   0.86674036382634     -1.19884121285842      1.80664639415088
  H   4.45963986623939     -0.73368167145723      1.93040485690658
  H   3.75569667924549      0.19133026803107      3.26469508386600
