24
Coordinates from ORCA-job 22786optt
  Cl  1.23494827511797      0.02435050947662      0.65956918924935
  C   2.92862051746090     -0.00494459601880      0.32041281070890
  N   3.44307800531703      1.09774856722418     -0.12229237882856
  N   4.77825770232138      1.09316373018615     -0.37518682061764
  C   5.45707651242815      0.01689370442903     -0.15221893326095
  N   6.82574678773979     -0.00100327097896     -0.36091458419026
  C   7.54367881991850     -1.19827808653277     -0.28980794058103
  C   6.95007641774449     -2.31635159308084      0.14311285765210
  N   5.56928727353538     -2.29470438247019      0.45663093466380
  C   4.82138450202721     -1.18502657765215      0.30535434580639
  N   3.53562989792654     -1.18451156714199      0.54443916736779
  N   8.85817860643308     -1.08445466834802     -0.69727096949708
  C   9.77175288901114     -0.09786758704755     -0.07301125595855
  C   10.91984226734560     -1.09892443009917     -0.29703264248826
  C   9.82509341624244     -2.16599596735908     -0.48083007465758
  H   7.20322167308318      0.75390238201839     -0.91490905669116
  H   7.46228168666226     -3.25443127549903      0.25818412639488
  H   5.09250818866684     -3.13741637178597      0.73366971282897
  H   9.54366206187551      0.05509190776221      0.98641309377889
  H   9.82811060684440      0.86272128014068     -0.58283465434903
  H   11.61440592743629     -1.24278692252305      0.52459290741755
  H   11.46413370865617     -0.90199099630750     -1.21690417609424
  H   9.63029480295902     -2.71232940991669      0.44950378070362
  H   9.91372945324664     -2.86685437847548     -1.30966943935791
