26
Coordinates from ORCA-job 2278optt
  Br  0.68605182798751     -0.62538285918868      0.44829885891871
  C   2.56682304484014     -0.77649499179380      0.31246927801487
  C   3.18804692525479     -0.90763788396513     -0.88684650100329
  C   2.37088273412397     -1.23964096105022     -2.10845143051514
  C   1.78759755921474     -0.02790297257958     -2.88420496298942
  C   2.91303175531486     -0.20307184771042     -3.93287911575883
  C   3.13846113608829     -1.63096074131241     -3.38988708952631
  N   3.96269482360461      0.76651415530666     -3.76738807643571
  C   4.93961751865401      0.68447719190659     -2.98651132660211
  N   5.31731709565000     -0.29201567006522     -2.03027870025987
  C   4.63995631813371     -0.73175092420310     -0.89149745172809
  C   5.38829343700652     -0.93138449364908      0.22435784035246
  S   4.66030654186457     -1.59884631445259      1.62552939266956
  O   4.38909937205492     -2.98844454598686      1.46155331556993
  O   5.29237780099729     -1.13895762394871      2.82072096391728
  N   3.21068650148097     -0.77420645139231      1.51169156116576
  H   1.62712686691984     -1.97371570706411     -1.80689612342790
  H   1.76232883558907      0.92949170461826     -2.36708698629990
  H   0.80476594250171     -0.25228954322611     -3.29698110361678
  H   2.59424434184554     -0.14108950944516     -4.97173272229733
  H   4.15385253973024     -2.00616780447259     -3.31005886285629
  H   2.54461100535065     -2.33796950247029     -3.96745139964130
  H   5.69627069472354      1.46656096796535     -3.06085836171616
  H   6.30803171410229     -0.22737214207607     -1.84605502569786
  H   6.43365606392918     -0.67294054997632      0.31405910810963
  H   2.80686760303696     -0.37780097976808      2.34838492165410
