26
Coordinates from ORCA-job 22789optt
  C   2.04724747571880     -1.17811100669921      0.49562729201279
  C   2.40457815184162      0.15725468518038     -0.13500658938197
  C   1.45270572254593      1.31659999118995      0.22810109488322
  C   2.60356691187677      1.78506961124588      1.12323800153903
  O   3.48789928028999      0.78981115046334      0.57564152301818
  C   2.71762289214335      0.02235677117760     -1.61207758675686
  N   1.83021268789263     -0.18123116753397     -2.49848868551262
  O   0.55533475323701     -0.24636818006480     -1.96103230910633
  C   4.12245799888697      0.10448708208012     -2.07327989870704
  C   5.10976366988046     -0.57600622758312     -1.36139109260895
  N   6.39484983852312     -0.60789075310130     -1.68882711383691
  C   6.75735813979688      0.07126261745419     -2.75397778327987
  Cl  8.43622319381281      0.02785230819899     -3.18129942054707
  C   5.89392854713165      0.81802980588109     -3.53950427698342
  C   4.55637492586852      0.83103305358555     -3.18316788839610
  Cl  3.49596874185850      1.81164649808812     -4.12276036502268
  H   1.84063568411273     -1.02794233516960      1.55623179794764
  H   2.87447092188002     -1.88241703036902      0.40386838766052
  H   1.16740080637364     -1.60127932264751      0.01375292985787
  H   0.52892922482552      1.01687485572332      0.71590900162683
  H   1.23285783947506      1.98012595518813     -0.60405055149400
  H   2.44863003944757      1.62838970404127      2.19241424005638
  H   2.98163701771355      2.79253481287265      0.95221342024585
  H   -0.00295114944289     -0.37625727285517     -2.73365800258200
  H   4.83737653880500     -1.12652306660116     -0.46941991810800
  H   6.24892014550476      1.37669746025428     -4.39205620652449
