27
Coordinates from ORCA-job 22794optt
  C   0.94583649296870      0.16930090218659      0.29226448607859
  C   2.41034684074639     -0.10926686627919      0.47042963172224
  O   2.77264992237488     -1.48409709362815      0.09492267520432
  C   4.05082810579925     -0.95995612426295     -0.30740115937171
  C   3.42619202129036      0.37197164825391     -0.59386597406046
  C   4.62123814890399      1.26232714660615     -0.91885754263861
  C   5.38752252689356      0.23595937093847     -1.77174976000289
  C   6.33454086073052      0.45918297538385     -2.70398278193139
  Cl  6.88732669481825      2.03895657557354     -3.08052258888441
  C   6.93515121666827     -0.63252988026040     -3.46978681906806
  O   7.76883098453967     -0.47636646602928     -4.33634829827551
  N   6.46082506420386     -1.92101878757018     -3.14073751229556
  C   7.01126678219039     -3.03926903101245     -3.90689484505236
  C   5.52985897204818     -2.13510942779089     -2.15666295770931
  Cl  5.10244833011140     -3.76202558124497     -1.80014562970790
  C   4.96495997623125     -1.11652960805461     -1.48547509273810
  H   0.35553768642159     -0.47249467477246      0.94645008615680
  H   0.64806864510772     -0.01864549159193     -0.73913690404798
  H   0.73048303643416      1.20928461673737      0.54187541853137
  H   2.74552466676036      0.07375799369105      1.49629788832960
  H   4.68106576453067     -0.92052517626998      0.59459383756511
  H   2.88083920522563      0.23522983441330     -1.53263559239670
  H   5.21611377019282      1.52837045659851     -0.04114288176772
  H   4.40905788654983      2.16848019807662     -1.48171547258769
  H   7.68281893709177     -2.61886101687675     -4.64619083838901
  H   6.20730353403224     -3.58648720841967     -4.39496430234060
  H   7.55736392713423     -3.71263928439550     -3.24861707032207
