28
Coordinates from ORCA-job 22803optt
  C   0.89504930397363      0.10976073670310      0.20506069525128
  C   2.39276402352440      0.02002729713253     -0.01407992411599
  C   3.33142432862187      0.95707339669073      0.77402733677638
  N   4.22448468336998     -0.18941976359534      1.03414463302472
  C   3.14709807516983     -1.13753095573874      0.67072649637005
  S   2.66586237616201      0.16938390079319     -1.79169853144632
  O   2.09966969318159     -0.97160016229068     -2.44412338910872
  O   2.14798774203626      1.48267479625062     -2.13374766934093
  C   4.40339616914393      0.22702106235906     -2.05656932713776
  C   5.08205814906851      1.41376559322328     -2.34423724176762
  N   4.52179663465484      2.61652853808167     -2.47341012667571
  N   6.45107129620648      1.44977470854056     -2.52228938574745
  C   7.08358319006284      0.34666469170498     -2.42158237981083
  Cl  8.79317859710032      0.33556713935353     -2.62333450160208
  N   6.53037802392017     -0.84405333068482     -2.17107794135453
  C   5.13841006147155     -1.00931635642975     -1.95461043230685
  O   4.73568188498003     -2.12395197664140     -1.72344255107068
  H   0.69396556078217      0.05526004750732      1.27549731265185
  H   0.38941048728619     -0.72171849311162     -0.28671774010498
  H   0.49329001872697      1.04483032243212     -0.18304459983348
  H   2.82166167575411      1.34774683336672      1.65979847504866
  H   3.79236628272822      1.78486017589348      0.23131582843426
  H   4.56796312021614     -0.26443414474308      1.98277628413835
  H   2.56161392566087     -1.48626161385205      1.52753159399402
  H   3.45502370697730     -1.98106517042199      0.05881219392508
  H   3.51532937648921      2.70581369610865     -2.45246205165222
  H   5.12719696869351      3.37637252824813     -2.73036411234158
  H   7.09328464403700     -1.67977349688022     -2.09389894419692
