28
Coordinates from ORCA-job 22801optt
  C   2.11212733285093     -1.08647668933341     -0.59423566002218
  C   2.80961657678818      0.18593247399557     -0.18074810405669
  O   2.52809197223420      0.76688957413471      0.83791113701845
  C   3.88553273537776      0.69283219776891     -1.11355517518506
  C   4.69393302151228      1.83214765571338     -0.50915010632282
  N   5.65515972695221      2.38328520818774     -1.44305492133896
  C   6.84172015281084      1.77192075620337     -1.71818314767152
  N   7.05932067111017      0.54501367606733     -1.22617108825175
  C   8.18611115494361     -0.07823351942072     -1.48141794688821
  Cl  8.38948532850494     -1.66837172679742     -0.81700018483880
  C   9.19713616453478      0.47402391559822     -2.24849346886850
  C   10.51375691265542      0.12748209498266     -2.72474211566081
  C   10.93298420687130      1.17958485788699     -3.44605102143520
  O   9.99883621965056      2.19144668493242     -3.48645436274712
  C   8.94793540682886      1.75403049126304     -2.75469266148555
  C   7.78562354825526      2.44125661000645     -2.51387223299237
  O   7.49104971384219      3.68724759092569     -2.97842141126771
  H   1.25337807527510     -1.26862463651420      0.04640263160169
  H   2.81552042094187     -1.91779137993622     -0.50811300228910
  H   1.80469584356917     -1.03330762505384     -1.63987009186549
  H   3.39887516461680      1.01966825655999     -2.03888310491337
  H   4.54292141798699     -0.13549582909596     -1.38871804862554
  H   5.20483451677584      1.47274584381576      0.38614033577365
  H   4.02526054873208      2.63350163081416     -0.20118998724626
  H   5.57754132643373      3.34754939844348     -1.71559069043649
  H   11.05669294892731     -0.78361192353630     -2.54238913002944
  H   11.84167264660437      1.37783034285506     -3.98660492921464
  H   8.24718624441315      4.04352406953313     -3.45785151074020
