28
Coordinates from ORCA-job 22806optt
  C   1.04688882805034      0.14402054107659     -0.02026548930268
  C   2.54857545501517      0.02801822834313      0.13392128260489
  C   2.93338126579544     -0.90405275426621      1.27239144873183
  O   3.04393447404463     -0.43761579543135     -1.11729108385818
  C   4.43884830194877     -0.41370121892659     -1.23327873424646
  C   4.81638338358489     -0.57407611065806     -2.68245555074380
  C   3.85267754305085     -0.44745470743529     -3.68679974646269
  N   4.11594817404109     -0.55592283361425     -4.97786074167948
  N   5.35340406735505     -0.77246359563759     -5.37788414409419
  C   6.29976400075562     -0.92393058709490     -4.47964101992202
  Cl  7.88693934866847     -1.15106533403317     -5.13120094346330
  C   6.10694660316453     -0.86177104462533     -3.09648944319868
  C   7.20348163984612     -1.06403998864961     -2.08177625539341
  C   8.11150924453658     -2.26232729519387     -2.19390564289511
  O   7.28912441191570     -0.29431531570391     -1.15895450804995
  H   0.60311808053173      0.54984176318775      0.88890497118415
  H   0.61564601758250     -0.84039839408114     -0.20854956479891
  H   0.79774005214148      0.79825574721333     -0.85495571175929
  H   2.97738440539919      1.02278355376848      0.31732197757452
  H   2.56513584184143     -1.91060860995204      1.06520943401110
  H   2.48742714166833     -0.55644625908197      2.20474554197109
  H   4.01278865900963     -0.94823959861054      1.41853253432972
  H   4.90773285738938     -1.20880871005316     -0.64326235566303
  H   4.84712970317701      0.53419332804704     -0.86129543551789
  H   2.82115176502862     -0.25612812498919     -3.42918724637592
  H   7.73553157597332     -3.01006163712447     -2.88827374384833
  H   8.22619069830221     -2.68514030814436     -1.19665662537744
  H   9.09221646018185     -1.93254493832931     -2.53704320375654
