27
Coordinates from ORCA-job 22813optt
  C   1.04772715177988      0.12900752373334      0.29203294365959
  C   2.51188114888998      0.08688086502328     -0.12751412864025
  C   3.00863313358578     -1.32793642851705     -0.40211746743200
  C   2.63954621422907     -1.70157940422271     -1.81873571527907
  O   3.30592974460357     -0.83570580305653     -2.73759436095933
  C   3.24668599085232      0.50344789662793     -2.52175752714707
  O   3.62681174860862      1.26452906775890     -3.36799727281503
  N   2.72786857602534      0.89541961343556     -1.32443333914128
  C   3.05761218126833     -3.10035416584999     -2.20962890909007
  N   3.81314799779782     -3.78859968055286     -1.37006723740207
  C   4.19378851611715     -5.00616677843446     -1.73619726548043
  C   5.06572298779982     -5.79496572942370     -0.79549049394169
  O   5.40940422909166     -5.39836289025091      0.27776932008307
  N   3.88387267820063     -5.61870948357793     -2.87191413065137
  C   3.11457980777944     -4.94523629500981     -3.71674466032147
  C   2.67241886851261     -3.66357643648733     -3.42915068450143
  Cl  1.66755044190657     -2.83023177262520     -4.53881389424552
  H   0.91399047815734     -0.37251790136275      1.25118647522664
  H   0.41371613346913     -0.35780084126974     -0.45085859564833
  H   0.70806863146903      1.16022237476488      0.39451898152683
  H   3.11508044555419      0.51359896124194      0.67756548803846
  H   2.57180015516401     -2.02971871472534      0.30736663206017
  H   4.09202964863555     -1.39471797539604     -0.30401857990863
  H   1.55924903240411     -1.60683522344657     -1.98028321522108
  H   2.70790429846592      1.89842772856284     -1.22859410872809
  H   5.36141584472726     -6.78076130646948     -1.19278203727702
  H   2.83656391490482     -5.42775720047026     -4.64674621676352
