25
Coordinates from ORCA-job 22815optt
  C   1.11244724309379      0.05711236605858     -0.08137710295778
  C   2.58206319809745     -0.09741399007485     -0.05189368574491
  C   3.39912509399250     -1.19468676461425     -0.03459952331135
  N   3.06461669708238     -2.51930861316477     -0.06918829854752
  C   4.04200240523701     -3.36785321952809     -0.04223848718608
  C   3.70381203053070     -4.82824519359971     -0.06630077038283
  C   5.44290181255020     -2.96296017568378      0.02881674156287
  Cl  6.62603680661183     -4.21582122485264      0.20614447903246
  C   5.81763680457478     -1.65138863898757      0.02844502064549
  N   7.11894769356053     -1.17338383243405      0.09393161783368
  C   8.20108306872149     -1.63839051108085     -0.64021736967673
  N   9.37114577067885     -1.16487715656969     -0.64194438880508
  C   4.74578364793389     -0.70495424391014     -0.00017981740267
  C   4.65798324375725      0.65508215391808     -0.00826821485725
  O   3.35561018733349      1.00947607275107     -0.03348939553575
  H   0.66442553349989     -0.93321707147650     -0.13766875263500
  H   0.79448313407195      0.63985941009955     -0.94724848948250
  H   0.74842501755411      0.55802623162739      0.81738747003066
  H   2.62606137792491     -4.93249045062774     -0.14969358948402
  H   4.04995715192596     -5.32096154655211      0.84394042751235
  H   4.19019698830888     -5.33019695737758     -0.90390099823269
  H   7.22514344580947     -0.25951174677394      0.51009857946244
  H   7.96155369348612     -2.48334568236989     -1.27791704677982
  H   9.47618783461501     -0.38126192864330      0.00377978518754
  H   5.37037011904750      1.46071271386679     -0.01341819024552
