22
Coordinates from ORCA-job 2282optt
  Br  1.15474509205826     -0.38518752155333      0.03843909600550
  C   2.96563174881748     -0.12375121135257     -0.38402405581717
  C   3.54897972135647      1.07167304003719     -0.59761654285503
  C   4.99287940132623      1.11266098075335     -0.76911497210448
  C   5.77934478938654      0.39346874161408      0.04242113807883
  C   6.95085448083618      1.23531774030373      0.47997134695367
  C   6.65444795178144      2.53068810837167     -0.27047146623946
  C   5.37134326561503      3.35137171761158     -0.34215346861425
  C   3.99908648277468      3.33159046169769      0.21345628054549
  C   3.08163508029597      2.39764281769433     -0.12096904476283
  C   1.71214666192853      2.70316676551394      0.17834938462923
  N   0.64707295274630      3.05670229120971      0.41724906763926
  N   5.64118050797162      2.28240456649410     -1.29596023357178
  S   5.30130086866992     -1.14130531795036      0.66854702677341
  C   3.78933160403978     -1.35660258446128     -0.30761826448254
  N   3.40636074280431     -2.47651317241778     -0.72682094955928
  H   7.92535632725082      0.84989161476193      0.16975226696816
  H   6.96361620545935      1.33461690189075      1.56741273183403
  H   7.51526663908700      3.09471879030508     -0.60764632812551
  H   5.58231971588067      4.34111324102842     -0.74167897770672
  H   3.66349737551918      4.22703500846641      0.72078077588548
  H   4.07960238439417     -3.21870298001862     -0.54230481147401
