26
Coordinates from ORCA-job 22838optt
  C   1.27677329153233     -0.27358698918987      0.33682411452684
  N   2.69934398141664     -0.02258002150779      0.18871281891529
  C   3.50161794361460     -1.18595228519236      0.49193067460676
  C   4.31160830703113     -1.76246027938568     -0.63272785751118
  C   4.98227554030165     -0.98832651050863      0.47108990662106
  C   5.44585829691640      0.40425792696558      0.29862991302579
  C   4.60317635143286      1.42845254319533      0.51891840372991
  N   5.05320823385315      2.71879681057147      0.42553089928636
  C   6.36885913974728      3.05671335703597      0.12879226160034
  N   6.85181718825374      4.22695796088703      0.04983585082219
  C   7.18816868774204      1.84052105997945     -0.11021880043320
  Cl  8.83231452111910      2.12227133946351     -0.51766562608412
  N   6.76591780334370      0.64538089655140     -0.03192840741654
  C   3.14971128310623      1.18473555854015      0.84744874207599
  C   2.95133092879368      1.14859947834033      2.32307525813461
  N   2.75747163971607      1.07173296015214      3.45013747930929
  H   1.00721918933722     -1.12033873768418     -0.29287833305140
  H   0.71130410484171      0.59778259062119      0.00462567143360
  H   0.99580592107929     -0.50285872160044      1.37416482506717
  H   3.09236915442581     -1.85466822683902      1.24403045190495
  H   4.20065497590794     -1.26909708531486     -1.58753019107366
  H   4.47834230644993     -2.82955455980250     -0.66073178338413
  H   5.56151301483116     -1.57023229351719      1.17635146350576
  H   4.41068877380983      3.48000732219393      0.58969945889451
  H   6.16369106622433      4.95049708909504      0.24840678769863
  H   2.54995835517213      2.01794881695002      0.46747601779520
