26
Coordinates from ORCA-job 22836optt
  C   4.40912191853614     -0.56241000944925      0.05251926372770
  C   2.98797726989174     -0.11148452853725      0.37263405894367
  O   2.18462487969482     -1.15068790156540      0.88277273803823
  C   2.97636623839224      1.12956103621217      1.25459961032901
  C   2.58004612755267      2.30485001937595      0.71275008169893
  C   2.59942017099176      3.55417262073472      1.42368240294010
  O   2.27019675342900      4.62653660069270      0.96568408428465
  N   3.10144869937726      3.47524912433335      2.76599881492273
  C   3.16514731224941      4.72780742449555      3.41026731756935
  N   3.96501118721372      5.11453456475150      4.30621942149357
  C   4.92454848557808      4.27947906964567      4.88205852534399
  N   6.13835697582646      4.56332865081668      5.06545712350946
  C   4.39465756287792      2.98752662029440      5.39928426252911
  N   3.74697604311584      2.14889530143999      4.71097375296536
  C   3.44243156545243      2.26182241676433      3.36500016091955
  C   3.38119435066156      1.11373057877670      2.62553261140511
  Cl  3.80675209551302     -0.36897336602365      3.40680170683377
  H   4.36322712416634     -1.42263488134018     -0.61488707538963
  H   4.95070496906484     -0.84764622023993      0.95399617032866
  H   4.95985170223242      0.23815309092737     -0.44228126346031
  H   2.50222509079488      0.17608762560737     -0.56046435876874
  H   2.61499298156834     -1.53668015576955      1.65306854398430
  H   2.24061843278826      2.36536702920780     -0.31210616157227
  H   2.45211080251176      5.42805965718722      2.99438560985506
  H   6.35975916762728      5.47754531523861      4.66723668438835
  H   4.59523209289174      2.74981031642307      6.44181591318021
