20
Coordinates from ORCA-job 22853optt
  C   1.23275948067128      0.37595594982240      0.70313138446068
  C   2.57188573747962      0.11499744484214      0.11445004008107
  C   3.22822320700661      0.75338990138456     -0.87869065519102
  O   4.43146909264324      0.14046279696538     -1.06312589338888
  C   4.43455081813382     -0.83365029450808     -0.15088245874902
  N   3.38497007023256     -0.91474705434765      0.57562503992557
  N   5.59064615891510     -1.62904274603086     -0.06853232877843
  N   6.62735000525205     -1.02959978150525      0.55211322846564
  C   7.69171229746096     -1.70400591435497      0.76174283358172
  Cl  8.98548936283629     -0.91106456430716      1.54817759857943
  C   7.89801894513283     -3.13336546819005      0.38882689615590
  O   8.91615744484834     -3.73435085392629      0.64178155336350
  C   6.75148602187405     -3.68192722728812     -0.30009936947789
  C   5.65399287135306     -2.92443987704085     -0.49951364293659
  Cl  4.28282579101021     -3.51632133359532     -1.33426098095172
  H   0.77996414893269      1.25929115668229      0.25643211033033
  H   1.31829472101913      0.52983389687260      1.77856185410828
  H   0.57305563409999     -0.47645569713476      0.53957957297602
  H   3.00815875097264      1.59738434350629     -1.50691740174422
  H   6.78998944012546     -4.69934467784628     -0.65739938081038
