25
Coordinates from ORCA-job 22856optt
  C   3.06575962773533     -1.66783112592074     -2.60752604838296
  C   3.48294234232008     -0.23930481295724     -2.41102243106470
  N   2.51820208272352      0.72936727177569     -1.89317392722992
  C   3.64445836636384      0.31756341532414     -1.04595664140732
  C   4.70344729642396      1.30696064671583     -0.70482600727212
  C   4.58991951603092      2.67130678737252     -0.83206409614708
  N   3.44417161830757      3.25553499948525     -1.35674865492883
  C   3.18091605725379      4.58404993789962     -1.50001281829989
  O   3.90286040370327      5.49515109951553     -1.16715271585150
  N   5.59792957648927      3.49747101415163     -0.46722860572994
  C   6.82938999472370      3.09324476370446      0.06173285497062
  O   7.65971318604032      3.92356649469114      0.36859479235934
  C   6.96965929398398      1.66108147012691      0.17595986966680
  C   5.95300280810741      0.84858415140711     -0.19427731330119
  Cl  6.17472871318915     -0.86875977434063     -0.05045679281286
  H   2.48559783717128     -1.78451078659888     -3.52389861681869
  H   2.45749574726351     -2.00844551844590     -1.76690602563358
  H   3.94267664479552     -2.31232292976092     -2.67293181737206
  H   4.12632532573520      0.18037746159667     -3.17640630312757
  H   1.66649683130966      0.26435042459689     -1.59644610230187
  H   3.40600995489260     -0.37412790393926     -0.24462176782574
  H   2.77833854508910      2.57340102193439     -1.72704990278076
  H   2.20079515068810      4.75289129733984     -1.96792255983954
  H   5.44827298613762      4.49864965103991     -0.56878723459485
  H   7.90289009352123      1.27775094328601      0.55812886572623
