26
Coordinates from ORCA-job 22858optt
  C   1.08575699314432      0.02567144620622     -0.00666532565980
  C   2.55125481105977      0.24127275490400      0.01132367820202
  C   3.30803026267610      1.36503674216502      0.06024280128916
  C   2.74104664098819      2.73562965269973      0.06148958989203
  N   3.12175320492356      3.50839593287627     -1.00780467029383
  N   1.96194856764839      3.21301346351390      0.94887704049116
  C   4.69106808500547      0.92627067447130      0.00825610704306
  C   4.61860546992938     -0.46504708690376     -0.07884277666664
  O   3.32381736528074     -0.87669255573385     -0.06922207982037
  C   5.72147249177430     -1.29233744537136     -0.15693383472821
  C   6.95364691944763     -0.66705748851284     -0.14688014444939
  C   7.04361520001183      0.72271072837099     -0.03492973945160
  Cl  8.64109958813477      1.41196923604073     -0.01638496624131
  C   5.94063816712713      1.56276486706915      0.07045961903844
  C   6.08309341142051      3.04190305465817      0.27374031429191
  H   0.57085462651353      0.98391565457593     -0.02623755489964
  H   0.76924019115221     -0.52658032277561      0.87987955933870
  H   0.80097472052745     -0.55949638096101     -0.88214408943176
  H   3.42129360213535      3.04801331263718     -1.84981622257700
  H   2.63107002188981      4.38239800722250     -1.11330722144037
  H   1.84728538102850      2.55150477075701      1.71057358974027
  H   5.62203086469651     -2.36626463910134     -0.22359196448680
  H   7.86415461585100     -1.24582251404445     -0.21131096095208
  H   6.88564079444461      3.24782820019378      0.98091232018448
  H   5.16129019743467      3.47708996386616      0.64971568776687
  H   6.33731780575419      3.54590997117616     -0.66139875617927
