31
Coordinates from ORCA-job 22866optt
  C   0.96915741447323     -0.12915698114612      0.04980756573074
  C   2.49508158225650     -0.14679045341753      0.00666298932376
  N   3.07480017308827      1.01328013046220     -0.66970172354671
  C   3.07402178672583     -0.25273653760256      1.41474348932628
  C   4.59206586270053     -0.36566135760065      1.44220574719001
  C   5.09988182056130     -0.58954076592650      2.85994642487856
  N   6.56628333998771     -0.59672017735572      2.91061935956271
  C   7.17087383820701      0.60171171242437      3.14416597383093
  O   6.56787959745646      1.64699808003984      3.35539070836971
  C   8.65123357863926      0.55669341963710      3.11565051781827
  N   9.23597252223538      1.73805054459629      3.37282303842924
  N   9.33138888211466     -0.51706206244609      2.86254261760991
  C   8.65861618856390     -1.67024291306549      2.62467199720621
  O   9.40749526942549     -2.76438911262757      2.36610912949796
  C   7.31017136452637     -1.74390842755779      2.63776780312680
  Cl  6.49211974074089     -3.22115079655854      2.34257094507677
  H   0.55348819155428     -0.05616660136572     -0.95653560054247
  H   0.62077310788040      0.73452566033466      0.62269402030975
  H   0.57103167604805     -1.03107260539682      0.51880933498297
  H   2.81897977586595     -1.02830741310353     -0.55645915437676
  H   2.79274174786875      1.86775774737139     -0.19802708294975
  H   2.73484568784573      1.07878890170309     -1.62210533455397
  H   2.62631666958815     -1.12046862952692      1.90913282059566
  H   2.76229552989942      0.62802102104475      1.98999919184280
  H   5.03733733795190      0.54531257313190      1.04091990326727
  H   4.91441375579744     -1.19417391000571      0.80515763228015
  H   4.73783066023527     -1.53028241169574      3.26889623712892
  H   4.78172054009043      0.22436001661138      3.50806728617766
  H   8.63472816744870      2.53771765818431      3.48816720225594
  H   10.23219978187299      1.83575574257913      3.29967870775931
  H   10.32925440834962     -2.48314205172141      2.41462825239135
