37
Coordinates from ORCA-job 22863optt
  C   6.39404656650375     -0.95884959791595      1.51242530277133
  C   5.35283593575692     -0.69702919435919      0.43156872940109
  C   5.68849122114462      0.52490374281510     -0.41306296259825
  C   4.62496316636596      0.81008529807628     -1.47684047507457
  C   4.98853389203155      1.98881300425385     -2.34883703762166
  C   4.66431909391428      3.24975296536773     -1.96521255046938
  C   3.99196832696254      3.56836962226178     -0.65707611638577
  C   4.94778584472362      4.45687356934774     -2.74987317732686
  S   5.60004244151741      4.27471685374865     -4.41289299032448
  C   6.03711080544924      2.60066086248086     -4.50994742351023
  O   6.70157529011376      2.25364267018218     -5.63283226791674
  C   5.73510848577307      1.69616471772445     -3.56544607119872
  Cl  6.30953582055750      0.08041530372233     -3.85036522666347
  N   4.68481341433146      5.61120432885696     -2.30196988570076
  C   4.92528585130160      6.81422938102749     -3.07582436829305
  C   3.71361182811030      7.10355736735054     -3.96069567146597
  C   5.19123774285331      7.96713502533392     -2.11932392708320
  H   6.14306625695581     -1.83697385738609      2.10782674419895
  H   6.47311853976209     -0.10593432742958      2.18924582485537
  H   7.37858371001205     -1.12275265704536      1.07029361245858
  H   4.36917583306763     -0.55934842037967      0.89123534788254
  H   5.26873871497295     -1.57037621009885     -0.22155577922381
  H   6.65633212549877      0.37880356911666     -0.90158998563049
  H   5.79587731129159      1.40343080934826      0.23113029762636
  H   3.66434247604767      0.98949223375983     -0.99648435167763
  H   4.49698881292470     -0.07552678295014     -2.09701329302810
  H   3.86428755984109      2.69461064593540     -0.02775755183935
  H   3.02075914134640      4.03529851849395     -0.83130864309953
  H   4.58629486495927      4.30590909465843     -0.11727475518408
  H   6.93307156991539      3.03555101637656     -6.14685645752710
  H   5.81004076541541      6.68625632546881     -3.71644784697026
  H   2.83380752923241      7.25338126397015     -3.33353133084229
  H   3.50963258819774      6.27970227076255     -4.64589563720091
  H   3.88148907245498      8.00670736490011     -4.54862851594374
  H   4.32454368012264      8.11715502661007     -1.47413196043563
  H   5.38376419115015      8.88821064613750     -2.67090186317359
  H   6.05281952942027      7.75075754947664     -1.48814773578459
