26
Coordinates from ORCA-job 2286optt
  Br  1.08198742326067     -0.35549560667174      0.01660511812851
  C   2.93214805004551     -0.04577753080714      0.08397033986669
  C   3.51260765177719      1.17758168803441      0.17685304329579
  C   2.93131227643537      2.51908307100665      0.20785721872439
  C   3.72778478099533      3.61048013405944     -0.04681962783157
  C   5.19005045965683      3.56220035400488     -0.40382830650714
  C   5.81396669324939      2.36357356089604      0.31316903430741
  C   7.15224954964431      1.81323664185822     -0.22166029375760
  N   7.06570338533451      0.33313358282865     -0.13549194876357
  C   5.69101628307068      0.05167588059797     -0.00771427932433
  C   4.94023226525768      1.15127169561113      0.15757502498050
  C   5.08361997681823     -1.25870193788175     -0.09117013525613
  N   5.62689143066970     -2.40717380541007     -0.21218091953598
  N   3.68907400409689     -1.18164638863951     -0.00172388736454
  S   2.78193477671349      5.02970220289616      0.06275751700219
  C   1.40427075593292      4.07058068317925      0.43621429669179
  N   1.61764269703285      2.79768527498610      0.48254124603018
  H   5.69038673526106      4.49303812167902     -0.13421462686027
  H   5.29769359591932      3.43597928268051     -1.48647205952236
  H   5.87954951901082      2.60371619894388      1.38168325286073
  H   8.02289625612997      2.17930500667000      0.31808047903210
  H   7.26172918922651      2.08378144880889     -1.27549886575805
  H   7.63347686532390     -0.06946640712276      0.60158287339135
  H   6.63448385502165     -2.31070414472129     -0.29544526810786
  H   3.21565544899225     -2.07167171272471     -0.07136488054249
  H   0.44263607512294      4.52761270523776      0.61969565482028
