21
Coordinates from ORCA-job 22879optt
  Cl  1.05811048022682     -0.06338940454895     -0.09636015226633
  C   2.77561642808828      0.04328734122732     -0.00368994032297
  C   3.41527646589186      1.14554580086192     -0.45095218062918
  C   4.85417905382738      1.24068455897689     -0.38592259115887
  O   5.52047652824901      2.18220677492516     -0.75432400799388
  N   5.50827566335261      0.09131291398482      0.14815514357726
  C   4.81622304693588     -0.98737193216434      0.62140413344410
  Cl  5.71131243623893     -2.25655503625253      1.35022615763641
  C   3.46637750791231     -1.05778295623266      0.56735166565010
  C   6.94821128749901      0.12856341012543      0.10786933658141
  C   7.56856945067254     -0.66360330331267     -0.78601963884198
  C   9.00771691056516     -0.77192096182590     -0.95027051314115
  O   9.55062759063210     -1.49450831693187     -1.74557605319578
  S   10.03843757754228      0.24039484092742      0.10910483229948
  C   8.93021697730839      1.12044641999041      1.07945908596118
  C   7.59196475057648      1.02050407987565      1.02053035663852
  H   2.89238057423193      1.98648558169917     -0.87998197193781
  H   2.94286144379716     -1.91298212407799      0.96110676123266
  H   6.99127699858795     -1.29698545284813     -1.44850029089771
  H   9.40808003669527      1.80180673034178      1.77154486276121
  H   6.97280879116855      1.63386103525906      1.65984500460332
