31
Coordinates from ORCA-job 22878optt
  C   1.05573922802610     -0.23436819015208     -0.08935398368112
  C   2.53827812077257      0.03900725963185      0.08313006646839
  N   3.04056327719141      0.84742860701396     -1.01795092189714
  C   4.43003315904745      1.24341454355713     -0.84705232719662
  C   4.86340868365077      2.09671998751948     -2.00842355066291
  C   4.83226837034790      3.48641476252665     -1.88548517601351
  C   5.16076929338688      4.30045710338097     -2.94845398696213
  C   5.52148721971563      3.73479202572760     -4.16534254917827
  C   5.58887178788299      2.34860058958941     -4.31866595021623
  O   6.00521119598402      1.71324586126349     -5.43251004930185
  C   6.12682391427555      2.44271174483025     -6.64388058272738
  C   6.91824233234274      3.72762756285601     -6.46715769202712
  S   5.92500731689066      4.82983580914280     -5.49345679288224
  O   6.71310238389547      5.90961595781081     -4.97317808358081
  O   4.74192797468833      5.13094064162417     -6.25366603470738
  C   5.24560295503667      1.54181158136821     -3.22302638654375
  Cl  5.32156244675800     -0.16765266146936     -3.42803457865087
  H   0.68195336177675     -0.86870041020023      0.71421184873107
  H   0.86997536084404     -0.72833494570023     -1.04263946239030
  H   0.48601818756924      0.69740065359454     -0.07131266111920
  H   3.09590640838836     -0.90154864661612      0.08262962829224
  H   2.71994690973137      0.51425395840002      1.05985632314979
  H   2.46257128854742      1.67366496537490     -1.13433597746800
  H   5.03561313094083      0.33664828467578     -0.79553632316275
  H   4.59884199898371      1.80279975423602      0.08491091333685
  H   4.55467774739532      3.92100860492535     -0.93345531824019
  H   5.16104774471731      5.37848155190606     -2.85147745501145
  H   5.13218390256557      2.66945834009974     -7.03595926654048
  H   6.63736223852121      1.77111206108794     -7.32984571882790
  H   7.08359199762284      4.22487804295323     -7.42270120713131
  H   7.86441006250279      3.56727459904161     -5.95083674385736
