30
Coordinates from ORCA-job 22876optt
  C   0.62880682782562      0.23717975485992      1.00798349461432
  C   2.14134444078636      0.30253500798483      0.85276573475930
  C   2.82838076853459     -0.92246127837589      1.44492109242092
  O   2.44825667348784     -2.05574849902319      0.70319249060470
  C   2.59202642727994     -3.28253933216977      1.40227623859952
  C   2.31665507276346     -4.39087136802721      0.41457832133861
  O   3.26655647262193     -4.40050688355336     -0.62548412309281
  C   4.33826515418280     -0.73187650696960      1.42267022256882
  N   4.88760121514413     -0.09120740702963      2.36709237069445
  C   6.25509106521940      0.22528001006280      2.44004722757186
  N   6.73653788880966      0.82888933169708      3.44478349704976
  C   7.13851088379626     -0.15185489932858      1.31749628014739
  Cl  8.77311104214798      0.33510515166234      1.44313259054668
  C   6.73624542566518     -0.84544779900007      0.23667354043837
  S   5.09197568567221     -1.40352827024991     -0.00473638932190
  C   7.59937537029428     -1.21423214789817     -0.83020186317567
  C   8.27853480703139     -1.55176520037976     -1.75811929355967
  H   0.15778748187408      1.11269899112802      0.56243423945234
  H   0.34846777800160      0.20562649597634      2.06249685892744
  H   0.22752997823652     -0.65101824628576      0.52153315988165
  H   2.54380016560529      1.18435479455088      1.35409474230654
  H   2.41835266570840      0.36895918022520     -0.20272386887734
  H   2.53906170480662     -1.03398467636207      2.49642629974395
  H   1.88438930112895     -3.31850043441988      2.23843827783929
  H   3.61169213670834     -3.37899649575424      1.79372245967664
  H   1.30008623302909     -4.27918643813690      0.02104174518598
  H   2.38548696011148     -5.35507854240825      0.91856260233209
  H   3.26971817059961     -3.52553420033341     -1.02878388231016
  H   5.98607851878192      1.00900052696226      4.11105654629814
  H   8.89427368414497     -1.84429061940400     -2.57537061266123
