24
Coordinates from ORCA-job 22882optt
  Cl  1.19442626282211     -0.37581673438207      0.84316064729545
  C   2.82569909685076     -0.35401851586903      0.28044824772044
  C   3.42468001261156      0.84506881268299     -0.11044164200067
  N   4.65610927706401      0.88103884627405     -0.59973492438812
  C   5.34761155714371     -0.25026298825642     -0.69183222547222
  C   4.84880949879681     -1.47744707476506     -0.29846187977303
  C   3.54890991645725     -1.54494927822857      0.20108033811940
  C   2.99710493116198     -2.79455016528599      0.61617322934558
  C   2.56082002813516     -3.85487756023474      0.96306807748059
  C   2.66274961028821      2.15038902228256     -0.04648059748759
  O   3.56366106856807      3.24204476658585      0.07400192846258
  C   3.25654054988727      4.26026120619690     -0.77512213734197
  O   3.76982770881982      5.33051081241283     -0.69395742256850
  C   2.22311982572974      3.79400927779840     -1.74365438531258
  C   2.64485677494297      2.59086749642757     -2.54704807722805
  C   1.84319389074802      2.41317501686312     -1.30612279817636
  H   6.34894529493983     -0.16749274139605     -1.09801144584123
  H   5.44410376075223     -2.37635945267254     -0.37299385445794
  H   2.17103896208695     -4.79362456124911      1.27837745463355
  H   2.01417748459059      2.15382237580877      0.83031013753397
  H   1.54134237812525      4.52315386850074     -2.15031811073150
  H   3.68990909549767      2.30967806525426     -2.52841408111544
  H   2.13784086266103      2.45248122507095     -3.49039251110221
  H   0.82752215131896      2.05089828018057     -1.34563396759414
