26
Coordinates from ORCA-job 22895optt
  C   1.12722037551014     -0.76071729019303      0.33148607957487
  C   2.49507640616817     -0.14812177087549      0.00165317783578
  C   3.62020499511006     -1.17281977924152      0.19233791308476
  N   2.52751845473582      0.45675561146251     -1.31002174702504
  C   2.33870158751289     -0.20357748144261     -2.46514927701558
  C   2.08572457691527     -1.47799293052940     -2.82358194521648
  N   2.02311425347609     -1.45565063851655     -4.23222822111497
  N   1.79268922216966     -2.48704520040293     -5.03870616089375
  N   1.77250343541168     -2.28195565164524     -6.27966715777964
  C   1.98637521568867     -0.99642067863882     -6.88250738065786
  O   1.95796440410274     -0.89602306294022     -8.08371507657598
  C   2.22748722065438      0.11254318684406     -5.97445908517951
  Cl  2.48964299057384      1.68910614722712     -6.55458739630744
  C   2.23319330495208     -0.18683998441882     -4.65992981231236
  O   2.42831414969548      0.59981340002151     -3.58684561687845
  C   2.73196044135888      0.97813447510483      0.99446519522530
  O   2.88715810811032      2.12335135607496      0.68422699715179
  H   0.91781322390309     -1.60348346771368     -0.32621869578611
  H   0.33697385323959     -0.02060106208563      0.20665620358147
  H   1.11515345977215     -1.12682386297354      1.35862326457336
  H   3.49080478682265     -2.00992492681553     -0.49317385359818
  H   3.60670042334156     -1.56514513728168      1.20970784486847
  H   4.59073398005378     -0.71635689095521     -0.00120547049786
  H   2.66408649954322      1.45860164306708     -1.34806169915551
  H   1.94674445413542     -2.38794113363920     -2.27506800577593
  H   2.74814017704233      0.65613513050704      2.05196992587489
