32
Coordinates from ORCA-job 22894optt
  C   1.36575234723611     -0.71969937868526     -0.81827391109394
  C   2.61621354204208     -0.11732240523635     -0.17382826110229
  C   3.00737206789201      1.19451715251384     -0.80933981722244
  C   2.49366784290777      2.37745079934188     -0.28034248732402
  C   2.83166339900438      3.58935815350197     -0.84713104905250
  C   3.69899989375727      3.65158331595221     -1.94433706564108
  C   3.88971724337242      5.05393115374068     -2.30972349061565
  C   3.16812601681309      5.82071471707161     -1.47729356989218
  C   2.45435587091546      4.97634164684652     -0.49465397288021
  C   1.07836370062201      5.32477661704686      0.03304980536121
  C   2.24586783011785      5.40551115387087      0.94333063834547
  C   4.20397647182536      2.47141273826060     -2.46576934056886
  Cl  5.31676623282702      2.58124725155940     -3.80465681281772
  C   3.85526190424339      1.23083191695775     -1.92999435302937
  C   4.42524785598843     -0.03935051244656     -2.50885979086729
  N   5.65867804963796     -0.40108338538744     -1.80327155576455
  H   1.09771361920474     -1.66556339518064     -0.34613424245268
  H   1.51819703783114     -0.90068954526554     -1.88321428043846
  H   0.52047257241472     -0.03668943155463     -0.72085474061112
  H   3.45102355505257     -0.81725575656321     -0.22271096512623
  H   2.42042514245546      0.05786531383474      0.88579335997728
  H   1.83955473276530      2.33171135502583      0.58538291298398
  H   4.51152118727454      5.39300218902050     -3.12439457295668
  H   3.09889859225545      6.89956095205892     -1.49336121041362
  H   0.39097001103859      4.49816387682645      0.14762040308960
  H   0.64061909153111      6.24531631961050     -0.32633902450739
  H   2.37326483268634      4.63421054958025      1.69032403322016
  H   2.61962689711605      6.38168845861777      1.21738041752988
  H   4.56455844676566      0.09105349322053     -3.58511256801454
  H   3.71400948161474     -0.85426189147253     -2.37806594668783
  H   6.32485061825284      0.36125687449302     -1.86727117102950
  H   6.09026391253810     -1.20859029716058     -2.23794737039743
