33
Coordinates from ORCA-job 22901optt
  C   3.68570578492976     -1.85196735304644     -2.76249192693418
  C   2.99522697494226     -1.61857949142426     -1.42563014163457
  C   3.89951175843343     -1.88076609765563     -0.22072842259805
  N   5.11623004412288     -1.06162823281871     -0.19711586721302
  C   3.14338090296501     -1.65956673889361      1.09428882245419
  C   3.84897980357119     -2.27241895935345      2.26574357119410
  C   4.78735285817814     -1.67069524480262      3.02891840979051
  C   5.31511542762581     -0.28381056308951      2.82810935081573
  O   5.63785899166042      0.26444379485120      4.10658151415054
  C   6.47047652316969      1.33567450216885      4.10553627404364
  N   6.75865599872689      2.01051247027010      5.11878829630948
  N   5.39320176688614     -2.38023363593980      4.03513922758653
  C   5.12263941894241     -3.70049382568729      4.35135518432705
  N   5.63542013747586     -4.37975590660851      5.29493935157348
  C   4.11639071165562     -4.25783847621501      3.42162900747737
  Cl  3.70497062137136     -5.91108066720248      3.65978796092161
  N   3.54893737536996     -3.60638637365470      2.49214696717493
  H   2.99137687852996     -1.71745175527068     -3.59166775207669
  H   4.08353650759568     -2.86738978521148     -2.82093965641776
  H   4.51348932100873     -1.15714969710147     -2.91283805492940
  H   2.11697589352269     -2.26418844813676     -1.34805244058977
  H   2.62856300171338     -0.58674037575130     -1.36848038500675
  H   4.21966524265201     -2.92729780245475     -0.24747705811226
  H   4.88335908413227     -0.10194463888390     -0.43977294683479
  H   5.77945705681712     -1.37927882620850     -0.89380157033598
  H   2.15792251988407     -2.12246276951752      1.02787063019892
  H   2.98981807123584     -0.58547005225773      1.23055509628949
  H   4.57474245211549      0.33863145005877      2.32753322463269
  H   6.20802283924748     -0.32504111965377      2.19855274488591
  H   6.89845395667868      1.57186232003918      3.13079580635670
  H   6.27058836306189      1.66551757321540      5.94625477465958
  H   6.01715760744341     -1.87132094871309      4.64560526070071
  H   6.30681610433434     -3.84168432505051      5.83886474714003
