29
Coordinates from ORCA-job 22900optt
  C   1.00926189689954      0.46977361312214      0.20801081071730
  C   2.48079241041957      0.09959445975119     -0.01217767642129
  C   3.35756411870090      1.35308411560544     -0.12377593652859
  C   2.92393597093895     -0.96752063708745      0.97458251665738
  C   3.43512033987248     -0.72135018989003      2.20207809238805
  Cl  3.33712422273148      0.84780808778813      2.89264964638352
  N   3.88809639964431     -1.73694687636049      3.05848999720899
  C   3.51663045144248     -3.05999000212151      2.78869285557120
  C   3.80972436322513     -4.02122423158374      3.71408467567270
  N   4.44522498801522     -3.74159703956183      4.87747520254653
  C   4.88700104394427     -2.55115624182795      5.07597099478511
  O   5.55195502973826     -2.23927193347630      6.19964660569301
  C   4.79440302190484     -1.45088807418467      4.11379787509976
  O   5.41732980763136     -0.42115492145072      4.18856884333508
  C   2.89260063514601     -3.33241165194447      1.54198144107959
  C   2.66809378556058     -2.36072776746592      0.62561802146799
  N   2.18103773458897     -2.66554930236505     -0.63681103895423
  H   0.66940999874827      1.15388442462762     -0.57093690205929
  H   0.89131275637240      0.96438583959239      1.17293405089288
  H   0.36066334547097     -0.40910119462206      0.20284027549635
  H   2.56931134267063     -0.37980273145269     -0.98842513661367
  H   3.07586628297992      2.12011505184755      0.59237340069674
  H   3.23649522339269      1.77360542823212     -1.12312173061098
  H   4.41250445575227      1.12038388010938      0.02148307150535
  H   3.54903790069435     -5.05102565808255      3.51944225165182
  H   5.59638738633934     -3.04554071930251      6.73090080117242
  H   2.63173460986077     -4.36249249974680      1.33734497575025
  H   1.86068316591257     -3.61611418218178     -0.73859706014739
  H   1.54269731140144     -2.00476904596741     -1.05012092443662
