26
Coordinates from ORCA-job 22911optt
  Cl  0.90515617392438      0.13798860303109     -0.01076545695976
  C   2.62364924362642      0.03540355792898      0.00972071663967
  C   3.38591096823651      1.13781628534608      0.09291993805221
  C   4.81285536481370      1.08448603926629      0.11262927313000
  C   5.55227514055860     -0.05788078392610      0.01819434880186
  N   6.93108185107962      0.01534294608636      0.09388534257647
  C   7.55956566670499      1.18906580320888     -0.49864053556920
  C   9.04761392641680      1.24767572935280     -0.18807587767451
  C   9.84020897497721      0.08778809953236     -0.77224541966725
  C   9.90850355163197      0.07953786075105     -2.27653098538829
  O   9.45039656375996      0.93893156097796     -2.97732661893723
  C   6.86335462883594      2.42732926268790      0.05465846206940
  O   7.41850973228008      3.47796801997408      0.24765949069716
  N   5.51207299275013      2.27501303434999      0.27523244941344
  C   4.99159500416552     -1.38684203548897     -0.08112987899639
  O   5.67062074921331     -2.38982293002354     -0.13761646906873
  S   3.22147189057939     -1.57641450365171     -0.09462738275784
  H   2.90075931177335      2.10417083635690      0.14960482976290
  H   7.36244778127831     -0.87453237101742     -0.12041900076913
  H   7.41199093764593      1.21984109493428     -1.58811022984539
  H   9.17263099096987      1.27088808483289      0.89565323692886
  H   9.42900187660984      2.18836279758319     -0.58310337997178
  H   9.47572579619327     -0.89172250275399     -0.44392652214389
  H   10.87702234816767      0.12141197682680     -0.41971715402394
  H   10.43487454295841     -0.78510406953548     -2.72429535090407
  H   5.01770399084871      3.11729760336931      0.53237217460543
