23
Coordinates from ORCA-job 22920optt
  Cl  5.46727969145845     -1.94396575339081     -1.48145497056359
  C   4.73435533088740     -0.87575971708635     -0.34540196956444
  C   5.36743412522468      0.26702909731755      0.00308499596508
  C   4.76054098928562      1.15554316772865      0.96942291584090
  O   5.21814034964241      2.22266515063707      1.33319919423511
  C   3.49446511493098      0.62126116957748      1.49331595221001
  N   2.93830052834782     -0.47340817932478      1.11480242395661
  N   3.52437557440013     -1.23487322554580      0.17254188929729
  C   2.74414274605948     -2.43630061895836     -0.15957736875956
  C   3.33325597362335     -3.69245494664080      0.47208321392203
  O   2.52791429295952     -4.81968037235599      0.15869900687005
  C   2.23604437499580     -5.04593940431033     -1.15647315801482
  N   1.86016153587001     -6.17610023158993     -1.56686309441415
  C   2.29618459612097     -3.89283891306733     -2.06981486100993
  C   2.52266390041601     -2.66255312106113     -1.62626480390307
  H   6.32353185240886      0.51411191043011     -0.43304750300185
  H   2.96805701961394      1.18590023896686      2.25357590847428
  H   1.78071454298118     -2.23637600090640      0.31187470778261
  H   3.33648339029047     -3.61102553950707      1.55724524016281
  H   4.35347806638703     -3.85407006673492      0.11684277851974
  H   1.85480455799096     -6.85231465622893     -0.80340707627553
  H   2.09248862205719     -4.11327927109741     -3.10757664533221
  H   2.50818282404772     -1.80457071685137     -2.28780677639737
