27
Coordinates from ORCA-job 22933optt
  C   3.50387361706081     -1.06344431528714      0.56176428164007
  C   2.64538948623392      0.08729756057315      0.04102939522447
  O   2.94564196593357      0.32156182722955     -1.31501331342582
  C   1.14618883404950     -0.26104641838791      0.18477444599957
  N   0.82251522453217     -1.32347662659586     -0.75973219596023
  C   2.92228307210968      1.37285587395898      0.80325307747862
  C   2.52342795876513      2.62429066664050      0.48104195737543
  Cl  1.59663671777690      2.95839948101152     -0.93381712932784
  C   2.85281767201144      3.74994621543697      1.32899060159103
  N   2.45607880769230      4.99200062599828      1.00259431360236
  C   3.56862921970259      3.47641370120524      2.46508204652959
  S   4.15250608306223      4.51855634022303      3.71357183074844
  C   4.90995954692991      3.01326576008150      4.54849242564004
  O   5.51930262750607      3.14150002499826      5.56187653875654
  N   4.64437769495443      1.88026028691316      3.82724578764645
  C   3.95856983494870      2.15395579528692      2.76159150604565
  O   3.62581245999536      1.15475312167398      1.93167716828535
  H   3.30468347172126     -1.93756866382200     -0.05847574410936
  H   3.28888030718989     -1.30003793829381      1.60287593649440
  H   4.55995019810532     -0.81760388245393      0.46859841446749
  H   2.38840515975758     -0.29853529554102     -1.81151562224446
  H   0.55592123071528      0.61490499649307     -0.08019525584941
  H   0.93690556436183     -0.51050551316580      1.22986368599972
  H   -0.15212578063282     -1.30259640252888     -1.02542025958106
  H   1.02215395286868     -2.24213882611475     -0.38578683605762
  H   1.96906606550215      5.16744979208851      0.14159926138676
  H   2.72814900714607      5.76954181237848      1.57903368164379
