29
Coordinates from ORCA-job 22931optt
  Cl  1.05156328506924      0.02467978112322     -0.64439833369655
  C   2.74547978152612      0.03818664086438     -0.23439970752602
  C   3.46031146204695      1.23826266301972     -0.15454446266924
  C   4.84852096304270      1.09620376368531      0.04817865360746
  C   5.79243108141453      2.26947245713815      0.02725076433532
  C   5.16807911052880      3.52083304692848     -0.56140382558523
  C   3.81631668830018      3.71737455256217      0.09427161613577
  C   2.83416357921080      2.62048629561056     -0.30027667282341
  C   2.13341956364988      2.91350642601813     -1.65831949071094
  C   0.86355475131051      3.22472028709176     -0.84517421432840
  N   1.55608871301301      2.88258864331290      0.41887454176015
  N   5.45498622826071     -0.07654707760189      0.25275808941696
  C   4.73055152221200     -1.17543312421191      0.23996587870401
  C   3.36353424690240     -1.18993249180480     -0.02405636190151
  C   2.67426741637427     -2.50613076144523     -0.05439904875258
  O   3.26029466559059     -3.54086465939929      0.12293603621731
  H   6.68787780544072      1.94985887281464     -0.50625588305667
  H   6.10374734320222      2.45931817068783      1.05980705096249
  H   5.04666503822344      3.40851593393096     -1.64371975000274
  H   5.81749615016086      4.38105318886539     -0.39894796101274
  H   3.36038419066797      4.67373811675545     -0.16644965662127
  H   3.92102284758700      3.70281422176571      1.18347774239125
  H   2.03947799114469      2.05016135948519     -2.31270103823731
  H   2.57281151161905      3.74084297219751     -2.21372820218469
  H   0.01001358503764      2.59047284423237     -1.08362856896377
  H   0.54291191799928      4.26645535647257     -0.86412230025174
  H   1.16513471389000      2.08187891437693      0.89532135438864
  H   5.23141166931738     -2.11870290217812      0.42633508144834
  H   1.59048217725705     -2.49681349229811     -0.24165133104289
