24
Coordinates from ORCA-job 22936optt
  C   3.02665386538291      0.55871794011018      1.21031985201428
  C   4.18303296119207      1.21804338783993      0.54897053148582
  C   4.88237361214666      0.76584967857060     -0.48765757018518
  C   5.93642506661943      1.59774164379100     -1.04972828123150
  C   5.94799030642332      3.04288313275370     -0.68543183301476
  Cl  4.69234326004502      3.94291687132697     -1.66632146255561
  C   5.53224370500919      3.18356579426993      0.75606221872922
  O   4.46631254995240      2.42351568946289      1.14792815091803
  C   6.01409622899129      3.96437250332158      1.72190431015557
  O   6.86259623136609      5.05014075720781      1.63041058813111
  C   8.20395196476795      4.96975547418212      1.68036186689778
  N   8.96422548753791      4.10867730905244      1.16704358032232
  C   8.50089930570904      3.14721299770957      0.26869789725963
  N   8.80345555925160      1.92783087371005      0.25884259934895
  S   7.52031213426144      3.85189970156916     -1.09234737525504
  C   6.87638953197435      1.10119037673350     -1.84106244940375
  O   7.65357619016075      0.61822681958638     -2.53226238048047
  H   2.14237146482386      1.19552136537290      1.14659326691650
  H   3.23885391807077      0.39116691753433      2.26764702211905
  H   2.81176761586808     -0.39471036038066      0.73380517990583
  H   4.64642147920753     -0.19632111460104     -0.91576445677168
  H   5.57942196272335      3.86467321808470      2.70794029554678
  H   8.61988626679669      5.81711248412195      2.21581521468706
  H   9.36939933171820      1.69901653866997      1.07823323446005
