22
Coordinates from ORCA-job 22958optt
  Cl  1.40914653357239     -0.55307050701349      0.89884914593541
  C   2.99153213154755     -0.19527648346947      0.38230561206559
  C   3.42408094316751      0.98491498734531     -0.06979542361087
  N   4.80481421367613      1.17338665625839     -0.30535182322422
  N   5.73674387817006      0.65700120117200      0.58439356198484
  N   5.57885546662071     -0.45031946730234      1.06076385544822
  S   4.19614994396924     -1.44132648263762      0.60236316955835
  C   4.99684642766315      2.56635875822993     -0.62078340189461
  N   6.07590738877768      3.17725939376185     -0.78346942015249
  N   3.72302280518205      3.16634191718651     -0.70035502276479
  C   2.84133177042764      2.29530543340700     -0.37531827793730
  C   1.37537517346109      2.62975906513802     -0.48411398518666
  O   0.60702601242863      1.79051985215598     -0.88326957946425
  C   0.98936142353435      4.00379773585887     -0.12120862980598
  C   -0.24429073612833      4.55543149964659     -0.79593408740935
  C   -0.32938872780724      4.13465983709525      0.61839296883375
  H   6.87660047756595      2.55968332456859     -0.65775297363779
  H   1.79218991513819      4.67983539798442      0.12763447906360
  H   -0.69289905393886      3.90680641919815     -1.53497253335148
  H   -0.22904354799611      5.61004691459579     -1.02713102735356
  H   -0.83627784162507      3.20398925922892      0.83196794601982
  H   -0.37308459740673      4.88989528759130      1.38878544688378
