28
Coordinates from ORCA-job 22968optt
  C   3.60921053779849      1.82820449367077      7.98240293060304
  C   4.72828628944302      1.65191351972953      6.95421335603613
  C   4.26691683183200      1.87747446553588      5.55026229849638
  C   4.06005043443440      0.94745570052870      4.58889138848074
  O   4.26499745242192     -0.39512466097344      4.79437900283398
  C   4.96331961024428     -1.08471549459433      3.80502187933678
  C   6.19274192935405     -1.71867771452855      4.36433237159546
  N   4.60410380233173     -1.21613477091600      2.61176123367848
  C   3.34099810747825     -0.67525316911275      2.13067572579038
  C   3.26597097722626      0.82663611292892      2.16544212781715
  C   2.84945591263975      1.60384098027586      1.10756232849353
  C   2.78061947377484      2.99610791047371      1.28409277194961
  Cl  2.27229356041283      3.95808868304643     -0.06834867182096
  N   3.06919439806516      3.63738011172288      2.38779469814246
  C   3.47215281849092      2.87508168386129      3.40253848791708
  S   3.88924568418284      3.48028554599994      4.97317270688932
  C   3.60034254736873      1.48643094019975      3.34847642580372
  H   3.98732563113458      1.66623731153181      8.99187497454873
  H   2.80408072925584      1.11704883496938      7.79704079723211
  H   3.18928404165703      2.83339326734243      7.93298276357425
  H   5.13051474381312      0.63931881946551      7.01043796524994
  H   5.54777279837537      2.33825585261312      7.18050278220003
  H   6.69422790522338     -2.29993138745845      3.59714725876046
  H   6.86151385892606     -0.94653437739583      4.74858237836439
  H   5.91790357996497     -2.36017901941663      5.20301841173927
  H   2.52201537221291     -1.06729872011531      2.74553080465217
  H   3.18907961587667     -1.02927144646381      1.11284708107277
  H   2.57938135606056      1.16996652707917      0.15536372056252
