30
Coordinates from ORCA-job 22978optt
  C   1.17404224849162     -0.50476249023697     -0.22400555620356
  C   2.65121133893835     -0.21651674616866     -0.13836773344944
  C   3.20276080732156      1.01576120705335      0.02848095831669
  N   4.57290997325474      1.13297812560607      0.00232057948532
  C   5.51951624670803      0.12345786383731     -0.16204937573148
  N   6.78413089242685      0.29745476807102     -0.18690983079491
  C   4.89416649141804     -1.18328985911329     -0.30149439170772
  Cl  5.93344323098203     -2.53522021430206     -0.49409949897308
  C   3.55413594891605     -1.32061042532292     -0.29132088014438
  C   2.45319491006441      2.33263774740122      0.14530419851269
  C   2.14400534576467      2.82685419915011     -1.27691200796912
  C   1.13394390871803      2.26126108005521      0.96273711929319
  C   1.04545943841675      3.61351583248746      1.61355892675014
  C   2.19889397000192      4.26192755854772      1.56123922064849
  C   3.26077184133491      3.44035485018560      0.88500876872892
  H   0.63917599107579      0.24136655914402     -0.80925489977097
  H   0.69768103582468     -0.56291234986275      0.75627636877563
  H   1.02366732413776     -1.46560469852035     -0.71522651576240
  H   4.96102852968447      2.05662777635010      0.11132416678744
  H   7.04038282745799      1.27617787764977     -0.07838524310034
  H   3.13691079351285     -2.31332801321291     -0.41342128503412
  H   1.50025491062293      2.11953194318833     -1.80108469520861
  H   3.06347424449211      2.93830083990074     -1.85408222911808
  H   1.63943858213356      3.79396670123300     -1.23310802156470
  H   1.17723824865088      1.47395395438331      1.72093267400740
  H   0.27102881231550      2.05130886179995      0.32997526663196
  H   0.14365337521929      3.97704342271619      2.08808896527095
  H   2.39352095548397      5.23689588117173      1.98711444513176
  H   3.92505113884403      3.01858669485379      1.64777437526724
  H   3.87690663778618      4.02628105195388      0.19658613092509
