22
Coordinates from ORCA-job 22975optt
  C   1.10031353110556      0.49954154471519      0.34263434689058
  C   2.44153394118286     -0.12195189206042     -0.00614050483820
  N   2.84724318080089     -1.13896893018849      0.97236007061176
  N   2.49763424958327     -2.37150470380892      0.67472426906542
  N   2.75385639910041     -3.33018525843878      1.44510541610762
  C   3.43925553145505     -3.09883103726750      2.62268220855089
  C   3.76504366561628     -4.15482177457601      3.42558822985264
  Cl  3.35191151825513     -5.76965935024096      3.03477494147707
  C   4.47361592634473     -3.87602486226027      4.61451371682497
  N   4.84122720688881     -2.69489414942067      4.99035652178084
  C   4.55550962413926     -1.59486597152604      4.22161147708522
  O   4.89980263706132     -0.47971679662484      4.52234894599170
  N   3.81201475612887     -1.82638298107917      3.00708918502616
  C   3.43629261379633     -0.72540149296952      2.18261707707315
  N   3.57099088755178      0.50092933222486      2.39629714766599
  H   0.82270868466553      1.21949429863449     -0.42700995329203
  H   1.15687786742044      1.01857322555753      1.29761423232339
  H   0.32656785179332     -0.26694088190037      0.39072885275722
  H   3.22798556420047      0.62784335450244     -0.03106870178716
  H   2.40180714215362     -0.64421837025488     -0.95916824261670
  H   4.73120206656875     -4.70813141032261      5.26482831389782
  H   4.04060515418730      0.67611810730494      3.28051244955163
