28
Coordinates from ORCA-job 22977optt
  C   1.02556800201908     -0.00559534196895     -0.14052580705758
  C   2.55775697264843      0.09079811629382     -0.10471114849256
  C   3.14149916868188     -0.31233829988739     -1.46660085979893
  C   2.93576913385988      1.56437367983433      0.11648616126686
  N   2.32530128842947      2.13120180700116      1.31198386112058
  C   3.12728635339065     -0.82613106526790      0.97535521813694
  C   3.95736310097084     -0.36666624159835      2.00054301780873
  N   4.51546926026295     -1.13000599236624      2.93798257568755
  C   4.28464927348683     -2.42106993960453      2.93205846602605
  Cl  5.00975528355305     -3.41078229257536      4.14232881949706
  C   3.47100786532770     -2.99969945625946      1.97549718972672
  C   2.89157983494752     -2.20230478262249      0.99986785931514
  S   1.93443755581449     -3.22787313630160     -0.05073715917198
  C   2.37955178553983     -4.67391342149528      0.89699365686149
  N   2.04354114792984     -5.86462944756232      0.73105282978677
  O   3.20215317475725     -4.32802801576278      1.92534817213002
  H   0.62801925706417      0.74756813480932     -0.82554823148184
  H   0.59994602983811      0.15821424949701      0.85009269878823
  H   0.67908369599143     -0.97527238633269     -0.49503927157859
  H   2.70317594901991      0.30068268479648     -2.25635217430060
  H   2.94089746149924     -1.35600384094718     -1.70731794862427
  H   4.22337160585922     -0.16781024340946     -1.47856999165194
  H   2.65897334419854      2.09954272617157     -0.80102622191833
  H   4.02072932122400      1.65025860124366      0.20630455655079
  H   1.32876490185509      2.25823904806962      1.18782641918634
  H   2.71608249877877      3.04138684102273      1.52020441908050
  H   4.16766948939220      0.68840079338309      2.08808933324771
  H   1.43059724365959     -5.99354277816079     -0.06658644014088
