31
Coordinates from ORCA-job 22973optt
  C   5.56958214263074     -0.73183113051633      1.48455423774058
  C   5.34022900361253     -0.06552082765366      0.15903022916286
  C   4.73075836357430      1.18642534307721      0.08495809950257
  Cl  4.27773441139130      1.98114221882554      1.56719460717714
  C   4.72505019629121      1.92720175524161     -1.09068747557364
  C   5.00807747083222      1.26241110015725     -2.28020364355658
  C   5.61222545223886      0.02144185524995     -2.24161246521014
  C   5.93388367718159     -0.54840954747113     -1.01258409256153
  C   7.11027291035730     -1.44554099147676     -0.94103564976369
  C   8.36387117036047     -0.97813842354545     -0.99333010353502
  C   9.54596619956643     -1.91023882941743     -0.95257872906515
  S   8.97147347583153      0.69383540173818     -1.14753988577937
  C   7.69318054103953      1.83485493484965     -0.71471901439807
  C   7.35520053790736      2.87395548294213     -1.48236715153823
  C   6.22944215194007      3.80077600667778     -1.23354952746153
  C   4.95084291645325      3.40022759781466     -1.06184373333638
  N   3.86493579747648      4.24368043015874     -0.93425314749112
  H   4.63868717863860     -0.79585233848636      2.04798255670121
  H   6.27296914527996     -0.15673904249590      2.09320277339976
  H   5.97376370890102     -1.73220966364546      1.35294620550303
  H   4.95564487584362      1.81445472711401     -3.21015640304614
  H   6.01229595974873     -0.41444136426717     -3.14815777887037
  H   6.98296122220267     -2.51888846384775     -0.83708964986665
  H   10.12129296979324     -1.75950386524899     -0.03818758177072
  H   10.21678784815009     -1.72172568897758     -1.79322430072142
  H   9.21417262899010     -2.94601282805870     -0.99988922111174
  H   7.22406055547816      1.67585368260431      0.24623224379696
  H   7.91422695340608      3.03025122910619     -2.40305223327134
  H   6.43292044568875      4.86647642703506     -1.29453007927351
  H   4.06938418359895      5.18644586739722     -0.63974847229893
  H   3.06710590559477      3.84761894511914     -0.46276061348282
