31
Coordinates from ORCA-job 22986optt
  C   3.60644376973741     -2.12096586219829      1.18403443893590
  C   3.38797762521436     -0.68793010101525      0.71551259295628
  C   4.41597242171974      0.23972354749482      1.32005262898596
  O   4.17535800386335      1.55160577205588      0.79849723972918
  C   4.95560934718008      2.56846790707591      1.14522780914774
  C   4.80497810621990      3.78052220181536      0.54109447888500
  Cl  3.59219111278519      3.95000261151119     -0.68143123886688
  N   5.53127110793509      4.87619201312100      0.80930397761021
  C   6.47161761429449      4.99699896518611      1.67814034041953
  C   7.13689449377756      6.34989517430535      1.79345461061611
  O   7.17876321310645      6.98859468557883      0.53617834105340
  C   6.39188184517784      7.25850284709542      2.78741529829791
  C   6.42362050729370      6.75774828925394      4.21477961166202
  O   6.98820352615550      8.53505315205557      2.76187099653895
  C   6.94501196030607      3.93113125504393      2.56403838400180
  O   7.81408127244555      4.02899472731449      3.38653486637798
  S   6.15536314946209      2.32637170635318      2.37456118238239
  H   2.85875016707362     -2.78602474090635      0.75488279319828
  H   3.53596174251637     -2.19721551461358      2.27035922177966
  H   4.58971195844482     -2.48718728806405      0.88455919511771
  H   2.39301060767990     -0.33813334152037      0.99560020221885
  H   3.45741162035969     -0.62395511515274     -0.37159495020207
  H   5.43171472117405     -0.06954806432762      1.05474739926603
  H   4.33063160560590      0.26125070682892      2.41086355238060
  H   8.16554382005151      6.22726607130875      2.13716487637985
  H   6.36953751703052      6.74830870512922      0.06325952948376
  H   5.35117585680267      7.32245591802220      2.43419504302333
  H   7.45162844275254      6.58809951382760      4.53547093148581
  H   5.86806569684531      5.82549303378699      4.32244389695278
  H   5.97174803981838      7.50563392521519      4.86504637246806
  H   7.13686912717030      8.75964729841840      1.83473637771381
