22
Coordinates from ORCA-job 22980optt
  C   0.99986897717042     -0.10753476718609      0.05424177803604
  C   2.48133297233578     -0.04984451510225      0.05127857584188
  N   3.31240913674016     -1.06515987599591      0.08889204802483
  N   4.58559325005153     -0.61738939695964      0.07698850819759
  C   4.53727653865938      0.69254368324152      0.03540450053927
  C   5.57456873129138      1.66269435499444      0.01754736410529
  C   5.26431211799197      2.98154485771430     -0.01749103202515
  Cl  6.46012266909080      4.20835180902902     -0.03400636149206
  C   3.88620195208191      3.36871668907579     -0.04163268524447
  C   2.90646307205771      2.43888795901360     -0.03410169877402
  N   3.21239172623681      1.10448612744105      0.01471943805594
  S   1.33166002380492      3.21348874445493      0.01334094078818
  O   0.75645416658842      3.10424135427654      1.32093006617627
  O   0.53649242269076      2.89694488732737     -1.13615286469496
  C   2.13787767482801      4.83662856691573     -0.21683650385441
  O   3.53012697932411      4.67484685115776     -0.04516875215240
  H   0.70441394017444     -1.14888175256245      0.15099749856496
  H   0.58549661062733      0.30053859028235     -0.86863753161385
  H   0.58494634646989      0.46076265639987      0.88938901033845
  H   6.59991344267754      1.32234886437409      0.03495213731920
  H   1.75041904405176      5.52831923338931      0.52742047001619
  H   1.91765820505494      5.15846507871866     -1.23407490615276
