25
Coordinates from ORCA-job 22990optt
  C   0.97252326858987      0.12650227765972      0.12951464207191
  C   2.44076457267660     -0.02785791444704     -0.15852188965396
  O   3.10257549695048      1.18639197836363      0.27462406647724
  C   4.41395273126280      1.16860199571797      0.52032835363366
  C   5.19790580446017      0.06298544157671      0.58626307881675
  C   4.57979538929864     -1.30538866049258      0.39619827549728
  C   4.88828582608342     -1.90297281218799     -0.99634248502676
  N   6.13580482403769     -2.37793060730043     -1.14023768022017
  O   4.04010676346477     -1.93643591372484     -1.86482864039606
  C   3.07453594507558     -1.22356200199403      0.53801836533644
  O   2.42974579837655     -2.03274535413160      1.14105020820581
  C   6.61474656543777      0.09170768119291      0.93375357120894
  O   7.26792959520121     -0.93931266402232      1.01283434563707
  C   7.23985374118158      1.39755890139383      1.20479313857979
  Cl  8.91111215513376      1.36272849740725      1.60640426630269
  C   6.59941675100169      2.57122592756438      1.15546364159324
  S   4.94341806152942      2.79814600777948      0.77685660837214
  H   0.58745267395398      1.01622668518474     -0.36559375458351
  H   0.79972422492431      0.20076432789616      1.20200305659294
  H   0.44386354585875     -0.74902898565182     -0.24305538787080
  H   2.64112081519921     -0.14629109007197     -1.22697893683422
  H   4.97049724952826     -1.98078472965834      1.15842368421202
  H   6.82394437530252     -2.21998224867687     -0.41620287903278
  H   6.40306326707441     -2.73504020947467     -2.04279456525763
  H   7.11886055839644      3.49749347009773      1.36302691633795
