21
Coordinates from ORCA-job 22999optt
  Cl  1.03757796726349      0.21849182365540      0.02334855197935
  C   2.76228536431546      0.12669848008058      0.01600411414166
  C   3.52509352658909      1.25665991633356      0.04665136320257
  C   4.94061971401002      1.16914005962887      0.03555394078087
  C   5.59504475543360     -0.03398040427970     -0.00783168303409
  C   7.02426232085915     -0.09645685972399     -0.02134599599997
  N   8.17113165716239     -0.12480088139305     -0.03212011268282
  C   4.81041124479896     -1.22098638243714     -0.04054480226914
  N   5.22627428231835     -2.48518317837443     -0.08884718956121
  N   4.09403798167213     -3.18446148622273     -0.10381389950208
  C   2.96449544409824     -2.46520152417558     -0.06834367372953
  C   1.64735183858059     -3.13171872883192     -0.09244635130886
  C   1.21337543060103     -3.88407764282525     -1.27910181779783
  O   1.72225510205137     -4.54523108911543     -0.13246294526670
  C   3.38640920220115     -1.13683447295089     -0.02390926505246
  H   3.04853357638664      2.22600473791986      0.07918286632773
  H   5.52043917936190      2.08196055913691      0.06013184696279
  H   4.12229528514014     -4.19469461397093     -0.11654313637499
  H   0.89156942978242     -2.72431544923097      0.56817770053727
  H   1.86052447817675     -3.90033437666220     -2.14890098657562
  H   0.15401221919711     -4.02467848656095     -1.45683852477694
