28
Coordinates from ORCA-job 2300optt
  Br  1.07669887966643     -0.09981007612054     -0.09040133999831
  C   2.95894727910063      0.10343571531860     -0.02210491599847
  C   3.55472073624681      1.30484176158557      0.33104679215908
  C   2.83555334389437      2.57031860894938      0.71957777643794
  C   3.46421866451778      3.14818765755603      2.00051204770865
  C   5.00969544983972      3.20534287178166      1.96189588012272
  C   5.60920312406079      2.65306824457915      0.65766449480527
  C   4.94918832458642      1.34395147085373      0.30476572758585
  C   5.65799776759744      0.20635175146043     -0.04940033758543
  N   5.07311977648074     -0.94389249016909     -0.36850055473805
  C   3.74939443810229     -0.99126135934778     -0.35909401925188
  C   5.43440240255480      3.59362192763344     -0.53237987743189
  O   6.26267294817827      3.68506215659696     -1.39125975148747
  C   4.14068211974765      4.41916169213690     -0.55272153718299
  C   2.84352306194473      3.58293641526333     -0.43939261809679
  C   4.07906634743849      5.27282272937368     -1.73712395743671
  N   3.97404195202881      5.94007480169980     -2.66144198375859
  H   1.79316800761276      2.33088331169158      0.92293709133711
  H   3.14710569068847      2.53191343337899      2.84116994077720
  H   3.04638405366467      4.14201232686202      2.17432098416839
  H   5.41564451646729      2.60783069683766      2.77770616249893
  H   5.36764004979733      4.22401461808791      2.12179491692506
  H   6.68443781614479      2.50577924379861      0.75754143998710
  H   6.74261094849968      0.22551724133165     -0.07482028555387
  H   3.28362446753147     -1.93132605457650     -0.63074411185283
  H   4.19236247011565      5.07854703142463      0.32031850430658
  H   2.66737601920469      3.06853896163667     -1.38541800061420
  H   2.02351934428698      4.28907531037547     -0.30044846783239
