18
Coordinates from ORCA-job 23000optt
  Cl  1.18824239778388      0.16554221199511      0.03837598697564
  C   2.89486841847557      0.09423618783656      0.00835482505563
  C   3.58322716493157     -1.07986953063264      0.01097196529216
  C   5.00625500757318     -0.97440653319652      0.01137434656134
  C   5.60123381419111      0.22810325299272      0.01132652762138
  O   4.94530695266603      1.38385102443827      0.02035326342359
  C   3.55228336434655      1.41192370626335      0.01429473621778
  O   3.01413300217780      2.47039900833689      0.01881407106442
  S   7.32874177841888      0.11864176832379     -0.03524808348879
  C   7.16803157551853     -1.67352938534472     -0.07165824727464
  O   8.06098335008012     -2.44332415356678     -0.11953351908821
  O   5.85797478974546     -2.03920653966546     -0.03676935446960
  C   2.94720883633362     -2.40270229939703      0.01412442381290
  N   3.47446802967220     -3.39641494477611      0.66901449382782
  O   2.68038388073166     -4.44870802673470      0.45913894845553
  N   1.64176314460386     -4.13967883932072     -0.34629382626063
  C   1.77192177850063     -2.88632134614276     -0.63366770988930
  H   1.06997271424931     -2.37953556140925     -1.27197284783703
