27
Coordinates from ORCA-job 23008optt
  C   1.56791353531303      0.82791816140996     -1.44893349567333
  C   2.79550896479613      0.49303593907621     -0.66160535823603
  N   3.56623540429309      1.50083417460134     -0.24797297697757
  C   4.65101823909395      1.17574468902899      0.42122544008423
  Cl  5.63518152818291      2.49976445895208      0.96377004000409
  N   5.08434560900719     -0.03079861948137      0.72512958162961
  C   4.32785637351576     -1.05085032153170      0.32018235278179
  C   4.77792988785296     -2.44063378926782      0.63850428231503
  C   3.13817060127063     -0.83178717706814     -0.37992015205630
  N   2.39276316581501     -1.91461751123074     -0.85775205163118
  C   1.26050379872308     -2.20474516454024     -0.34310791599047
  S   0.45289980145150     -3.55673459047611     -1.15640459942841
  C   -1.01057358963919     -3.74270307192086     -0.28407826965103
  C   -1.39887266815019     -3.00466127605984      0.76536900118456
  C   -0.58415351869042     -1.94006710696199      1.28939705499814
  O   -1.03726073391709     -1.25621686348303      2.36025225328062
  C   0.61811996169914     -1.57844377005147      0.78359879836821
  H   1.58910795746436      1.87860040375468     -1.72499500097252
  H   0.66666969871070      0.63470681322591     -0.86184720054049
  H   1.50975491464091      0.20381403410512     -2.34214976553431
  H   5.77369005394163     -2.41449189113774      1.07198106436212
  H   4.77030485446500     -3.05343131750916     -0.26437089242192
  H   4.08839741190537     -2.90984119287332      1.34386389988064
  H   -1.63408426766789     -4.54213087808736     -0.66379117667880
  H   -2.35194552035639     -3.21314820266291      1.23724859626261
  H   -1.89872593221701     -1.58468556001330      2.63651916730784
  H   1.15024446849581     -0.76843036979718      1.26688732333286
