30
Coordinates from ORCA-job 23006optt
  C   1.76453242409341     -0.63584344418497      1.08387897717195
  C   2.57297070902509      0.03826492933818     -0.01881396365195
  C   1.92003804130338     -0.02722603678520     -1.39852841490812
  N   2.95872194547508      1.41711177246494      0.34268184130058
  C   2.04142456072621      2.43178317836628      0.58900417537697
  N   0.77916850011179      2.41515963133334      0.51789804382214
  C   4.28535636545574      1.77614523752695      0.23016087507208
  C   4.88578664649672      2.90249280221209     -0.22726996931920
  C   6.29287951672253      2.70798518542274     -0.00639256750841
  C   6.41276208357418      1.44399007653611      0.55253403184474
  O   5.18841687396294      0.86715793480213      0.71243610593395
  C   7.64160733443852      0.89189233644562      0.88372910189697
  N   7.76111066947177     -0.37832695688268      1.38820889517535
  C   8.72759896214802      1.72525563815546      0.61433483417499
  C   8.49971108047137      2.98086305815790      0.04846166399475
  Cl  9.89827334199051      3.96811275126133     -0.27012843360175
  N   7.33852407682804      3.50019027908252     -0.27188769473202
  H   1.60415113349133     -1.68167743723321      0.82047996882347
  H   0.78923796788288     -0.17813118015794      1.24072009819470
  H   2.31043718991421     -0.59636657395618      2.02629158065371
  H   3.51830013533636     -0.49773659398485     -0.08697866154657
  H   0.94324370481528      0.45308001372589     -1.42992259835086
  H   1.78915332134657     -1.07079203609732     -1.68673836102846
  H   2.55716991824429      0.45555382477844     -2.14015370801906
  H   2.53404065455612      3.34879997880831      0.90806801788736
  H   0.40704336174510      1.52741322373941      0.19791783721909
  H   4.40368719313045      3.74562802331995     -0.68996848696193
  H   6.93879750300199     -0.77766312912896      1.81008103311165
  H   8.62339809041000     -0.60458734932841      1.85514704613464
  H   9.73645669383004      1.40847086226211      0.83574873183922
