34
Coordinates from ORCA-job 23005optt
  C   0.90615950276156      1.15629179344746     -0.53681310482164
  C   2.21651481738184      0.44953965073082     -0.17175286790534
  C   1.91799167127388     -0.98624165125768      0.27982961926899
  C   3.22580728441270      0.47453056864471     -1.34626220752993
  N   2.78248462199321     -0.22695287389621     -2.54696420794138
  C   3.03112434800366     -1.56982486136831     -2.64394822113362
  C   2.70330994102959     -2.31513417775133     -3.72108788588540
  N   3.03216457935498     -3.67707280519605     -3.83727620075915
  C   2.10080024394433     -1.60562933937100     -4.81295032126084
  Cl  1.68343396182423     -2.56157890236425     -6.20529585646230
  C   1.86922600325318     -0.27152217850223     -4.78609692292223
  C   1.33863992927910      0.49447673175517     -5.96407767455500
  N   -0.03190152851711      0.95050784107514     -5.71657582555499
  C   2.18082554903814      0.50283135282798     -3.57512658975416
  N   1.96322014150037      1.75206478549153     -3.39745424549209
  C   2.87267101678972      1.16433629368138      0.93125847534772
  C   3.42845028738774      1.74063590863912      1.82350770859609
  H   0.42791431781058      0.64359770377032     -1.37220240150496
  H   1.09194725174918      2.18365497245664     -0.84096452690283
  H   0.23437022060143      1.14456789896009      0.32230355050666
  H   1.39970397155667     -1.52880796867481     -0.51222344021094
  H   1.27674892831073     -0.97028301713579      1.16087179048111
  H   2.83515061013061     -1.51865150291619      0.53918140762479
  H   4.15664845864254      0.01152151129724     -1.01419759626499
  H   3.42242223215911      1.50693658713572     -1.62523274559204
  H   3.52361067874011     -2.01209245032444     -1.78890992274355
  H   3.22937730291821     -4.10789084469571     -2.94567051960240
  H   2.33886282708474     -4.21414116328744     -4.33938330974187
  H   1.44051445168117     -0.10900867918899     -6.86674882163364
  H   1.96652596216574      1.38056385260297     -6.09278918666717
  H   -0.64551637025832      0.15388166005327     -5.58933862333968
  H   -0.37989537704601      1.47561847567168     -6.50985145191010
  H   1.45412006865593      2.14520776367980     -4.18006398939943
  H   3.91257209438643      2.25706706400938      2.61730611566632
