29
Coordinates from ORCA-job 23003optt
  C   1.01918275049888      0.74239229859959     -0.07200321309711
  C   2.48402335494424      0.36944711614222     -0.05352304951303
  C   3.44254631011165      1.11126968197344      0.90384844826331
  C   4.21019371280211     -0.20671351932186      1.11370255063843
  N   5.37513116787725     -0.29438897077137      0.25696225651335
  C   2.92670771276200     -0.95273129372565      0.62388118286064
  N   3.16347823728359     -2.08526337771297     -0.21434853660359
  C   2.42960291717319     -3.07305039445052     -0.44307990299553
  O   3.03958306309695     -3.99067854550922     -1.32450146339649
  C   2.54090169645516     -5.17779410061436     -1.66133509979721
  N   3.36305160732830     -5.83228333785734     -2.52565170454428
  C   1.33637944617520     -5.61000940186751     -1.21045001919946
  C   0.61001136703646     -4.71309027737985     -0.38763228117045
  C   1.10214583445337     -3.50872052145067     -0.02393278622157
  Cl  0.13018020975910     -2.46641569145027      0.95526480060533
  H   0.88515794317729      1.75999048425784     -0.44528519169875
  H   0.59627003851851      0.69280299296634      0.93408603842892
  H   0.44339557569819      0.06988967412043     -0.70989375216471
  H   2.88922800322368      0.38263308088176     -1.06776928268043
  H   2.92443413965622      1.43248460190047      1.80865213897632
  H   4.02315788012272      1.94343927709063      0.50693076219294
  H   4.51017396405953     -0.44117264668371      2.13512684927259
  H   5.14503737884814      0.03627156742078     -0.67481042595690
  H   5.62686157427246     -1.27078883317890      0.13671495337443
  H   2.28763120302977     -1.15560631565516      1.48421365632197
  H   4.32089200816892     -5.52281270626032     -2.55412954588303
  H   3.20503527459492     -6.81559244775222     -2.66069394168722
  H   0.94664634142673     -6.57353243498360     -1.49506003444198
  H   -0.37504071255458     -4.99397595872800     -0.03728340639650
