26
Coordinates from ORCA-job 2301optt
  Br  1.36575263814783      0.44783295049826      1.31568882498535
  C   3.17809101284614      0.22744178022045      0.81422529647023
  C   3.95832770970182      1.29684829397850      0.39266620456209
  C   3.45363217111778      2.71234600030594      0.27349443918183
  C   4.58604373553911      3.68485564170276      0.59333299190853
  C   5.46261025551186      3.41992526990064     -0.63621514636689
  C   6.21291759749622      2.09760768559472     -0.46349055556826
  C   5.27693068758111      1.01469709681904      0.02551662439620
  C   5.72135302013962     -0.29873612598238      0.11211569480527
  N   4.96913429215203     -1.31065507669071      0.52399996087255
  C   3.71646251112028     -1.05090088000798      0.86908208920136
  O   4.54908751153445      3.30419492368179     -1.72282840159555
  C   3.22867481899465      3.07487215626184     -1.21090412343363
  C   2.54799570927487      2.05103694624738     -1.99505175221985
  C   1.96858561921259      1.20498142789227     -2.61070965680742
  C   6.39159907992951      4.52581242022581     -0.91199445776574
  N   7.12258179897732      5.39085399313489     -1.08080946742720
  H   2.55555448519509      2.87213634193558      0.86290544466232
  H   5.10383408436903      3.46846042463026      1.52568533770883
  H   4.23429127975554      4.71569392179503      0.59987183106420
  H   7.03787649059113      2.23280488125178      0.24112092015199
  H   6.64274880791396      1.81687254358110     -1.42638848729701
  H   6.74127600359712     -0.54098518837584     -0.17111317420159
  H   3.10697414230155     -1.88438333477808      1.19766476408814
  H   2.66057623335359      4.00855280748483     -1.26901098630689
  H   1.45608830364568      0.45183309869215     -3.16085421506887
