27
Coordinates from ORCA-job 23014optt
  C   1.03146699329193      0.13676506956540      0.20084697981639
  C   2.54954601204144      0.10014521238119      0.04015243323427
  N   3.00140293476134      1.33759984996224     -0.61911172260762
  C   3.34089560656629      1.29006616307515     -2.00707761695653
  S   4.65774166684304      0.09274011320908     -2.26174024811370
  O   4.95130087281859     -0.09514014942061     -3.65203881321295
  O   5.71786148359763      0.44291789544183     -1.33592475576329
  C   3.83359783233901     -1.32447818892664     -1.63494942475764
  C   2.93313244895686     -1.18618494040523     -0.67153872654825
  C   3.23797773541362      0.00627455842919      1.40543249249523
  N   2.57176039504286     -0.22161075540443      2.46066824374244
  C   3.26364953082103     -0.32878651589004      3.69750572236877
  N   2.66069264392787     -0.50028133733156      4.79273093394466
  N   4.67316880500737     -0.24578421624997      3.69573822136909
  C   5.24641521697623     -0.02373608484592      2.59868438363523
  Cl  6.96389668827169      0.08713482319627      2.49478149338498
  N   4.60993258376231      0.15220866063561      1.39712284890891
  H   0.57770930446787      0.22062721801977     -0.78752048453566
  H   0.75367451755141      1.00361993993343      0.79559200798942
  H   0.66409073180972     -0.75904950746946      0.69678774725783
  H   3.70283140162899      1.83425938484083     -0.08826265969423
  H   3.72489925706197      2.25204341365749     -2.34570009178002
  H   2.50518679469126      0.98712665577713     -2.63852171737639
  H   4.08120530574399     -2.26348251081653     -2.11276013531590
  H   2.40521952436905     -2.06445747287352     -0.31306359331030
  H   1.65910892816223     -0.53930950424154      4.61542154644334
  H   5.14263478407436      0.23777222575082      0.53074493538193
