34
Coordinates from ORCA-job 23015optt
  C   1.09011193942570     -0.24384579218997     -0.03034791075524
  C   2.56516298196972      0.13081831549435     -0.05899959146779
  C   2.76008506569640      1.47459009013735     -0.76660419911279
  N   3.05123411314876      0.19522807173438      1.30453944724893
  C   4.29838236140456      0.11492208838382      1.54633625444671
  N   5.27410303318226     -0.05640109568493      0.55197096493750
  C   6.59026400959836     -0.14221480553234      0.87668574440337
  C   7.05803234319706     -0.05646485149178      2.15969655058442
  N   8.43336940326593     -0.16942891426445      2.15973378611379
  C   8.77072105862551     -0.31899164121436      0.91671207122266
  N   7.67566374059631     -0.30985348407393      0.07397969496271
  C   6.14514527639176      0.12455028242199      3.25516714475285
  C   6.74778904618237      0.21002825413312      4.64198702296789
  C   6.47452714833801      1.54952214276642      5.32863542714117
  C   6.35216903713916     -0.97768713703868      5.52215046776648
  C   4.82940195914153      0.19240082248505      2.92550756476084
  Cl  3.60037520509043      0.38319948746633      4.12091418451105
  H   0.68199543550834     -0.30785844814903     -1.04048667684912
  H   0.53654430759342      0.51222073478227      0.52811879542393
  H   0.95077189588174     -1.20204054755033      0.46900726510283
  H   3.08770450258519     -0.65529861710353     -0.63167657951948
  H   2.19520822523387      2.24124785242545     -0.23458237320339
  H   2.40061677443036      1.42879553847333     -1.79581829170424
  H   3.80596639373967      1.78769785680533     -0.77719659986829
  H   4.96687495389081     -0.11112810996148     -0.40452559878527
  H   9.77090507842692     -0.44042698118400      0.53441841764501
  H   7.69064089384161     -0.41046605526363     -0.92634311963386
  H   7.82468225650284      0.14451407699099      4.48023938987113
  H   5.42391934474780      1.66389859983787      5.58713659205092
  H   6.76468939758429      2.38331431805530      4.68820270190458
  H   7.06077847728277      1.60723722665158      6.24727482702702
  H   5.29344179330118     -0.95502518662016      5.77532350008920
  H   6.92636462830815     -0.94858274312135      6.44976728586157
  H   6.56635791874716     -1.92247134860101      5.02107584010286
