28
Coordinates from ORCA-job 23026optt
  C   1.10954654900013      0.19769444632746     -0.58669554798350
  C   2.55842540264222      0.27040622437399     -0.11844019206054
  C   3.00793668480662     -0.85644474514851      0.85584167019152
  O   3.91583308553765     -1.78705587014387      0.30430930725097
  C   3.70361947430228     -0.10090277793805      2.01566453008062
  C   2.76230358025647      1.11736330951207      2.16416168298691
  N   1.46505989558691      0.78465508427323      2.70072552494778
  C   2.94146206169190      1.55946709114168      0.67225848160906
  C   4.44324794257021      1.58916489131310      0.63836600141163
  C   4.90588122097475      0.57483718345379      1.41433598132282
  C   6.28937003074873      0.26397692417331      1.50489910396139
  C   7.09932309629170      1.05158155649930      0.77317874791694
  Cl  8.80194792769772      0.87110981576019      0.73691211106582
  O   6.68183889176900      2.04522775611677     -0.00311761311363
  C   5.31855599419028      2.37956661107843     -0.17550799452581
  O   5.06318921470718      3.25147223644994     -0.95024419554206
  H   0.90251696602489     -0.76654495427309     -1.05668355256505
  H   0.91746100928648      0.97333895169239     -1.32918278684910
  H   0.38842957243220      0.33735679557814      0.21792029064920
  H   3.19348160973380      0.20656988907923     -1.00428233647033
  H   2.13662658863302     -1.38863996619544      1.25610721191010
  H   3.49804697860109     -2.24674841057397     -0.42992790876824
  H   3.87189841377446     -0.70751609724397      2.90134901793281
  H   3.21007954013539      1.86116901403995      2.82351524432343
  H   0.94366805497032      0.13635973161671      2.12987077681574
  H   0.89636244530015      1.60884846162820      2.84423014177649
  H   2.43725402002644      2.46773631248078      0.34936660407712
  H   6.68463374830797     -0.54204946507176      2.10106969764788
