26
Coordinates from ORCA-job 2302optt
  Br  1.23367284669469      0.62058239743419      1.41630590079886
  C   3.04837632955420      0.36263114712924      0.94528514764828
  C   3.87065120330472      1.42357814640087      0.58818459610750
  C   3.41140758546677      2.85947378548485      0.53973368706386
  C   4.57072015597910      3.77243637407714      0.93874882015796
  C   5.46181314242854      3.55976537011239     -0.29031603160207
  C   6.14679744848595      2.20343789928579     -0.21651425589254
  C   5.18524715527935      1.12287671103056      0.22304598429329
  C   5.59016513221592     -0.20555246915919      0.26352973449831
  N   4.80154941548571     -1.21028881813618      0.62107558660450
  C   3.54955375664112     -0.93203773461011      0.95266557284635
  O   4.54416889249410      3.60582804909591     -1.38619843269511
  C   3.23020551761964      3.31927565053841     -0.92280478368685
  C   2.59935755164592      2.31328811611136     -1.78749174918121
  N   2.08669841980057      1.52661851994949     -2.44225427820354
  C   6.42915003880924      4.71192441487986     -0.45768691633343
  O   7.54648054195079      4.70295564845546     -0.03223482590932
  H   2.50611249968852      3.01175975235734      1.12014269573669
  H   5.05934188097410      3.47507426737228      1.86426971070862
  H   4.24623741535879      4.81229382221562      1.01219966121137
  H   6.99165863513165      2.27380299120101      0.47240691929570
  H   6.55255619840847      1.96392913520134     -1.20173011374771
  H   6.60762707408395     -0.46548459183749     -0.01243227194878
  H   2.91144164711148     -1.76190889585561      1.23177200009997
  H   2.62136794574266      4.22714823971344     -0.96007402476266
  H   5.99864156964396      5.59059207155199     -0.97462833310803
