30
Coordinates from ORCA-job 23035optt
  C   1.04332519296780     -1.63221171830823      0.30829510688408
  C   1.94929224257447     -2.80377784998257      0.03295569323517
  C   2.65258099570596     -2.96573959890057     -1.28327979237599
  C   2.67994222294889     -2.12705186247830     -2.56628229494468
  C   3.39238058255838     -3.06363281353331     -3.51724312691007
  C   2.85571578180950     -3.91570142990498     -4.40669533916542
  C   3.38747770070548     -5.27393109298031     -4.37270464615078
  C   2.55729542352993     -6.34535922437900     -4.41040940069097
  C   2.36889928597286     -6.97538025081416     -3.09355383742682
  N   3.27587893308018     -6.74033765116720     -2.12770820933598
  C   2.95975542352581     -5.95840626994322     -1.12645139086836
  C   1.68148879913218     -5.34049543978309     -1.07272415232623
  C   0.69327184894762     -6.07834208604277     -1.70775720006202
  C   1.03069712885621     -7.02140669442413     -2.67687015537987
  Cl  -0.19305940195631     -7.75200907673285     -3.64988799500787
  C   1.48390019555706     -3.86650737675133     -0.93118842363960
  H   0.31673490138648     -1.86842177745830      1.08692383509964
  H   0.49315292806738     -1.34866408565388     -0.59058876412164
  H   1.61867771639833     -0.76411301597978      0.63361251600176
  H   2.53483696451731     -3.13810293298550      0.88205033316755
  H   3.60154850704562     -3.47265327766728     -1.14306082850552
  H   3.22750982467654     -1.19231302474816     -2.42159982207226
  H   1.67187794976350     -1.88897524482509     -2.90815267037741
  H   4.39761961427667     -3.30488205940956     -3.17808914488780
  H   1.85019461378902     -3.76928328281471     -4.78985571214754
  H   4.28526881688698     -5.37187445934349     -3.77414714716898
  H   1.65282399362220     -6.31395978103763     -5.00689014360717
  H   3.74801546233408     -5.72883728786957     -0.41541929313499
  H   -0.34942335275968     -5.79432055267305     -1.62209172480322
  H   0.56331970407951     -3.55830878140793     -1.41918626927700
