24
Coordinates from ORCA-job 23038optt
  C   0.76592370592802     -0.18561016930421     -0.01513111770390
  C   2.25966208426888     -0.03441374055255     -0.06050241558311
  C   2.85943975810140      1.23118097136834     -0.05560438117729
  N   4.17182011850953      1.41341157904652     -0.11365382790728
  C   4.97102098750171      0.35868022156638     -0.17540732973789
  C   4.48400110884195     -0.93627343777548     -0.17108357254524
  Cl  5.58796289239396     -2.25355427664092     -0.23926880571701
  C   3.10373748729637     -1.15097742091658     -0.11072718670831
  C   2.58132577511443     -2.48076046633771     -0.09817858626093
  C   2.15163881607923     -3.59910886051967     -0.08631213557197
  C   1.98598675394468      2.47125884888798     -0.02032119905929
  C   2.71683349128576      3.80344315496267      0.23845790478968
  N   2.61120822596412      4.54248642732583     -1.02503047853179
  C   1.89961265644618      3.84092334443771     -1.78508136608546
  O   1.41233556143583      2.65553151848359     -1.33836665531013
  H   0.28879896979602      0.50495076866449     -0.70914516982425
  H   0.38806656162166      0.03216406160359      0.98710483738566
  H   0.46994389941872     -1.20020812579466     -0.26880611247772
  H   6.03838075012470      0.53733329322247     -0.22688176629662
  H   1.77824057347018     -4.59547960814366     -0.07636499194870
  H   1.15495543949179      2.31478894601757      0.66667949620435
  H   3.76282812635380      3.64558130488397      0.48958083458401
  H   2.24365399389588      4.37978162252671      1.03355315624308
  H   1.61662226271515      4.09087004298761     -2.79950913075987
