32
Coordinates from ORCA-job 23034optt
  C   1.30313922574435      0.45706203526470      0.65963821416457
  C   2.54773487661031     -0.32570622000498      0.25218387953597
  C   2.94484059140018     -0.04646482807428     -1.18411952160012
  C   3.68508896650247      1.25586477287670     -1.55409137388184
  C   4.28629824059555      2.07522530068709     -0.42014201822374
  C   5.25403850708632      3.08339141624866     -0.95755661144716
  N   4.79532778066989      3.96889433486044     -1.85812469135749
  C   5.66997110641001      4.82159286120089     -2.32550348628399
  C   6.99170209501902      4.77116303693932     -1.87034280159964
  Cl  8.15280873614848      5.88732122045595     -2.47389424378881
  N   7.38604290507843      3.89740154329240     -0.98120104393857
  N   6.50184971659045      3.03148756462686     -0.51311978200687
  O   4.69670391942221      0.52457156078516     -2.26258640977582
  C   4.16853455880570     -0.75277322281017     -1.81935178141335
  C   5.13468561668800     -1.42314478973423     -0.86232872177318
  C   3.85228835655731     -1.64083245686376     -3.00290522130247
  H   1.04084629171393      0.27552350518015      1.70182034357992
  H   0.44913627722239      0.17329017297174      0.04210635569006
  H   1.45326539166039      1.53105256638626      0.53538658649161
  H   2.35497414515720     -1.39686448449961      0.36125801904110
  H   3.36996521301983     -0.09617811776346      0.93250385121334
  H   2.06877431753096     -0.17546430444531     -1.82367257163042
  H   3.14490646065038      1.92359768757875     -2.22817481086116
  H   4.81723354785715      1.44241516699053      0.28790683373475
  H   3.48483585160956      2.60080942915869      0.10641018703436
  H   5.35291291976028      5.55786469847772     -3.05533954157058
  H   5.40897132908921     -0.76178986456392     -0.04142312903311
  H   6.04656770784557     -1.68886096165408     -1.39898199732773
  H   4.69995417529111     -2.33463146524485     -0.44724674577250
  H   3.20483106191681     -1.11681579345783     -3.70609678718558
  H   3.34798817311076     -2.55011929094383     -2.66820701134117
  H   4.76978193723573     -1.92488307392173     -3.52080396737036
