27
Coordinates from ORCA-job 23036optt
  Cl  1.24653491717198     -0.14112132942482     -0.73242972690660
  C   2.92477831019679     -0.03107092273994     -0.32495937035373
  C   3.61952220930359     -1.16366374832972      0.04827942658501
  N   4.90865823491965     -1.07542727015765      0.36036340141284
  C   5.49121995179336      0.10889050645984      0.32429418243110
  N   6.82507782981375      0.12707386035262      0.74307399876278
  C   7.82564677774029      0.80785995717292      0.04347570336285
  C   7.73566470538913      2.05084545609447     -0.42725238823696
  C   6.60899944146300      2.95171162653368     -0.23019186887523
  C   5.32029861708443      2.65004809008525     -0.02515787752224
  C   4.28990211539070      3.72402762693687      0.13836344013070
  C   3.34980721792023      3.69026070907083      1.36203910369858
  N   3.44228876701781      5.16396811457383      1.41453929114135
  C   4.69787214888798      5.12058050396065      0.63939632398838
  C   4.77441752359627      1.27202854314378     -0.04061731764491
  N   3.49125324810152      1.15729105992440     -0.36074421382709
  H   3.14418651295396     -2.13411597668254      0.10279607544793
  H   7.09291792459185     -0.79870397200560      1.04460738001097
  H   8.74397489675489      0.24591877570376     -0.07391925340162
  H   8.60660346785092      2.44942695591567     -0.92928379151021
  H   6.86099544676725      4.00700953122916     -0.26743372478278
  H   3.68412505846119      3.80117913685990     -0.76543574960678
  H   3.82784679553825      3.18677222661025      2.21082164633750
  H   2.34674880971080      3.29355486121067      1.21560246308904
  H   3.51943554159056      5.56318252847532      2.34126712338254
  H   5.59427907941228      5.06930956866308      1.26771205737901
  H   4.81394445057751      5.91716358036329     -0.09620633449243
