27
Coordinates from ORCA-job 23039optt
  C   0.96423419259656      0.10591646154990      0.00183957373042
  C   2.46002878888069      0.02057949577742     -0.02586768665563
  N   3.14808061330020      1.14514660742850     -0.01703299422848
  C   4.47569155384471      1.10252418616925     -0.03288707223316
  C   5.21341853431566     -0.08110005455392     -0.09090157496901
  C   6.71567290559625     -0.05506439275125     -0.20615467734657
  C   7.45817063066335     -0.03641645062402      1.13890808633910
  O   6.75306251046058      0.55711755563211      2.23656214406471
  C   6.06006584467517      1.68045230792085      2.11300587932038
  O   5.33091961866958      2.09170274036028      2.95145096973743
  O   6.29401260546580      2.34242730611910      0.92961987276866
  C   5.19923667314027      2.40379587585083      0.06161693306903
  N   4.92943058726695      3.42463133801735     -0.60186500446274
  C   4.47819483651405     -1.25993825995540     -0.08360179705064
  Cl  5.28245905918389     -2.79658348098471     -0.11655717610733
  C   3.08590669681502     -1.24521998789523     -0.04273446768775
  N   2.33801732525526     -2.39478434922896     -0.07272584545121
  H   0.66838726717445      1.15037011307631     -0.03439735273992
  H   0.56101971403574     -0.33599286330236      0.91830750416415
  H   0.52323202413214     -0.42288724052707     -0.84680865252602
  H   7.00236432177900      0.81048866475573     -0.79916505642435
  H   7.05380126792201     -0.93823190758383     -0.74737289127954
  H   8.42072877476259      0.46247698963855      1.02425726625727
  H   7.62902952251544     -1.05334308690699      1.48536510123398
  H   5.54013373434100      4.19953207683160     -0.34497036809342
  H   2.80304507380072     -3.25737838211563      0.15840147876264
  H   1.38265532289284     -2.32922126269842      0.23470780780798
