27
Coordinates from ORCA-job 23045optt
  C   1.32554074962376      0.32364590460462     -0.65777175164688
  C   2.65182923018162     -0.13103624493512     -0.05209816254425
  C   2.70605296015395      0.23353350066042      1.43798744102423
  C   1.89342881426384     -0.72345208065417      2.26501480757163
  C   1.82597207283261     -2.03326057074705      1.96435485008034
  N   1.09818313914926     -2.95455006547183      2.72541695647696
  C   0.48342389920182     -2.48390849742678      3.71753852968433
  Cl  -0.46645308741364     -3.48196473689255      4.73828169782736
  O   0.45258816970787     -1.21636077212188      4.12894351744321
  C   1.18293111379877     -0.23746105103654      3.43474504510422
  N   1.18240139997081      0.94841983243437      3.84941784503016
  C   2.55890989485972     -2.60361877460310      0.80398959206347
  N   3.43950249012188     -3.70879788600451      1.06839658819484
  C   1.85361648709386     -2.61689744625146     -0.51969027111578
  C   2.94930221646831     -1.62057116259265     -0.25806904156830
  H   1.25001026617518      1.41108685789082     -0.62295474002873
  H   0.47482585297989     -0.08123040953318     -0.10495480863029
  H   1.23593638493382      0.00338218416904     -1.69612089120401
  H   3.44693677947626      0.42112643394168     -0.55652301950002
  H   2.33770497638733      1.24622990202722      1.60285800307499
  H   3.74009886802402      0.21599271203750      1.79605546699936
  H   0.62030623956002      1.05785497003060      4.69033862214900
  H   2.91615134261063     -4.47996342355892      1.46998342036811
  H   4.15750623618354     -3.44639400293551      1.73485895183765
  H   0.83352790992872     -2.26130878630938     -0.55312259461414
  H   2.08110067270435     -3.45701366336747     -1.15997752218040
  H   3.89266492102177     -1.85048272335416     -0.73489853189705
