27
Coordinates from ORCA-job 23055optt
  C   1.53417457495026      0.03990917551576     -0.81943242215276
  C   2.65109628880574      0.02493740700643      0.22504692359368
  O   3.60958511520670      1.01535973968998     -0.06817193339728
  C   2.08057424171634      0.25362131216211      1.64764114865444
  C   1.54120012659616      1.60332585456061      1.77008450467242
  C   1.13958697884019      2.73137357628897      1.81767812504088
  C   3.34656969410508     -1.31937746594744      0.18752932804895
  C   4.58364090284788     -1.65303392652269     -0.23929691710187
  C   5.65683253004394     -0.69334744140905     -0.74126819907956
  O   6.93150642523747     -1.30687048413835     -0.77750364716895
  C   4.89255402662885     -3.05767812493273     -0.26216904260476
  C   4.02012863553582     -3.99103247469849      0.15601387177699
  Cl  4.37659710195964     -5.66708591197556      0.13063519399035
  C   2.70752541608628     -3.61654196401282      0.66187591980746
  O   1.85415049371757     -4.33219340374240      1.09008094494218
  O   2.47153843937674     -2.26147402989617      0.61310721400758
  H   1.01263083474965      0.99712205281731     -0.77233439643905
  H   0.81708848018297     -0.75946579813335     -0.63764101253733
  H   1.96556397366726     -0.08074524901409     -1.81278382337278
  H   3.18509650732535      1.87551627219670      0.04631501397626
  H   2.88327206662180      0.11710225663883      2.37567832745558
  H   1.30736274529617     -0.48565714714788      1.85608983657779
  H   0.76326164559339      3.72450124372246      1.88557786093570
  H   5.67516075423110      0.20868770917193     -0.13913824571689
  H   5.43426270491008     -0.39829555260908     -1.76704195151910
  H   7.30913188694309     -1.30211135648009      0.10658635237831
  H   5.86390740882442     -3.35754626911089     -0.63215897476826
