29
Coordinates from ORCA-job 23050optt
  C   3.11217989812122      1.38426367628045     -0.54662164800506
  C   2.53369685822578     -0.01369181844320     -0.38084103476109
  C   2.90292701367791     -0.65790410537152      0.95729196428461
  N   2.30795725447009     -1.97572974984080      1.04661042074142
  C   2.15599136188643     -2.47073166377625      2.21962232204625
  N   2.60543600476086     -1.94290033348879      3.40013161347281
  N   1.45799537633537     -3.65544310319755      2.36931994046435
  C   4.40399734331752     -0.76871647481971      1.10963181471106
  C   5.13368293645407     -0.14975733763149      2.08376935555103
  N   4.50557136905836      0.63076871330967      3.09071360462912
  C   6.53381215056871     -0.43192524855668      2.03450745198824
  Cl  7.52837226627026      0.29995296195983      3.27327291371702
  N   7.13817492960515     -1.17881460221149      1.19052675042923
  C   6.41475716281950     -1.80043105030439      0.18389960593437
  O   6.89284336107899     -2.51351418133700     -0.66200575631773
  N   5.04218687372574     -1.54282219210980      0.20437883369247
  H   2.78682450316903      1.83344722366173     -1.48417469313820
  H   4.20420880736520      1.36794681119802     -0.54888755621092
  H   2.78646602632506      2.04022798353934      0.26442755883423
  H   2.85950704882333     -0.66598371091989     -1.19474498637959
  H   1.44397641620113      0.00824690790298     -0.42644874337290
  H   2.54723584905872      0.00842339496704      1.75149904318513
  H   3.04780912172276     -1.03244989917216      3.41728086589512
  H   2.12747949517554     -2.21703613567082      4.24165862851118
  H   1.25747186121533     -4.09214127883800      1.48241361876779
  H   1.83107911677375     -4.29415206699879      3.05526131309560
  H   4.23582975030645      1.54784960903149      2.75350847460980
  H   5.12457880941017      0.76347966179199      3.88055581993399
  H   4.48695103407749     -2.04746199095419     -0.47555749630936
