28
Coordinates from ORCA-job 23057optt
  C   1.34737691526929     -0.64728990562838      0.30628017487156
  C   2.67698099890883      0.02152494462515     -0.02834761564773
  C   2.56280020329347      0.87166790227528     -1.28433406751154
  N   3.14811170899285      0.80947584213670      1.11695026028255
  C   3.04680907051566      2.16179601799322      1.22326677728783
  C   3.45931752462525      2.57345943114654      2.46660055664195
  C   3.82584858370121      1.39728510505298      3.14895386032072
  C   3.62993591826875      0.30869825454342      2.31705193713527
  C   3.95992698860309     -1.05608523291295      2.71890922993020
  N   3.84377300227630     -2.15846828689578      2.06958515793149
  C   4.48883889772951     -1.09010581001280      4.08336306666624
  Cl  4.90039657849521     -2.63780244272607      4.73049656526410
  C   4.67199931348341      0.00454335737722      4.87143601485327
  N   5.24343208470279     -0.01872028418496      6.13114139654205
  N   4.31730280316621      1.24828975813167      4.42819112169854
  H   1.03458273323043     -1.29723255977543     -0.51203506306450
  H   0.58314030758010      0.11827914371917      0.45439673141412
  H   1.41817388788471     -1.24240627232144      1.21641076756982
  H   3.44178481633995     -0.73159988610006     -0.22078976245240
  H   1.75133527077233      1.59632827025087     -1.20477716903604
  H   2.33786619891278      0.21770462753735     -2.12616308679748
  H   3.49211510184522      1.39962022737367     -1.49714017640383
  H   2.69157680626262      2.75791682751713      0.40180339135519
  H   3.49882691514739      3.58786745808123      2.82518210707761
  H   3.45384196709883     -2.02141517359702      1.14735814334328
  H   5.38999655310753     -0.95464421380554      6.48067612426902
  H   4.77828868380082      0.57129775086616      6.80634863649851
  H   4.70862016598544      2.04601514933265      4.90118491996018
