26
Coordinates from ORCA-job 23068optt
  Cl  1.43477602324504     -0.22006646258405      0.56638550252599
  C   3.13912300415128     -0.20970753771539      0.22185769444707
  N   3.63344633824270      0.88235609561534     -0.31138616259048
  C   4.93970924200130      0.85647177009044     -0.55638803650671
  C   5.81376872924317     -0.19940045687219     -0.31961088889188
  C   7.25689189320010      0.06529317665035     -0.75880965797272
  C   8.16749514967436     -1.13417676366177     -0.48333279386534
  C   8.29150637488195     -0.94017113913328      1.00391554846647
  C   8.50407877447140      0.51215692643182      1.18080600901926
  C   7.88576910029623      1.11336055718481      0.16373256888504
  C   7.73850942909309     -1.75704403849727      1.89195046041292
  C   6.97347803539125     -2.95391040080645      1.41652075820650
  N   5.87791964026671     -2.61376628657254      0.47008283405581
  C   5.25766473011672     -1.36638960380609      0.26498500816756
  C   3.88219947656960     -1.33041591025861      0.53132146903301
  H   5.34108990967683      1.75983210485975     -1.00757931873096
  H   7.25298664024209      0.37207637219607     -1.80491056445564
  H   9.13272174204360     -0.96756380723024     -0.96421019917105
  H   7.75524770765960     -2.08556731191645     -0.79993323585214
  H   8.94070426573351      0.98398022775102      2.04909355121170
  H   7.74060197847179      2.17800288840254      0.04136671967957
  H   7.68003998621967     -1.48137379789144      2.93816322581831
  H   6.54120795913156     -3.47610190196329      2.27189023603423
  H   7.63708264646722     -3.65889871447118      0.90812796238664
  H   5.16485615691807     -3.32543093308314      0.52742737334106
  H   3.39712506659105     -2.18254505271875      0.98753393634578
