26
Coordinates from ORCA-job 23069optt
  C   1.16153682167326     -0.10414378199404     -0.23998661418807
  C   2.61208681038742     -0.07590524005128     -0.11273491174467
  C   3.80866073842482     -0.06471922612161     -0.00919855514903
  C   5.22671093745909     -0.08367832903602      0.11046716775393
  C   5.92622413404401      1.03258646652200      0.43211748524168
  N   7.27373430448076      0.99863956339251      0.56390697891601
  C   8.08052117005972     -0.12189932565053      0.44750788833822
  N   9.32485823300178      0.05103851492746      0.70975094369469
  C   10.26284614682158     -1.02449268749900      0.76183858418224
  C   11.00491091899988     -1.45773451027391     -0.49304889269286
  C   11.69904573604294     -0.67694090227759      0.58543644280343
  C   7.34814884245224     -1.31350397156161      0.01715680714143
  O   8.01741788979198     -2.45019651074934     -0.25690050133207
  C   5.99655983492608     -1.28090863224273     -0.11660360763977
  Cl  5.17897914710963     -2.70915163827650     -0.60408553726622
  H   0.83538810046718     -1.07430484698024     -0.61547285064153
  H   0.81625021631467      0.66280543778144     -0.93363490233498
  H   0.68291187836374      0.06533929453851      0.72512340358385
  H   5.44732121902211      1.98557571939614      0.59811816137671
  H   7.77694973064869      1.82846944794859      0.84327769551968
  H   10.05494020350565     -1.80251016527518      1.49180242057574
  H   10.75394679970182     -0.93010128450866     -1.40277028036632
  H   11.26499696713833     -2.50108133112775     -0.61781610226585
  H   11.90160898191300      0.36494109759178      0.38240187237516
  H   12.43276152096635     -1.18970788597659      1.19010491365980
  H   8.96868271628318     -2.27541527249585     -0.26975800954120
