34
Coordinates from ORCA-job 23062optt
  C   1.53260271556564      0.13254318362397      1.48518495478581
  C   1.91606656768318     -0.12756270890574      0.03410334710766
  C   2.85935515130471     -1.33113234443765     -0.16437101835619
  C   2.07978763332839     -2.66666946709635      0.03281638545672
  C   2.96608501909751     -3.62018712681095      0.85537270287882
  C   3.98273401929458     -2.69125133211077      1.43751437751745
  C   3.93435696026714     -1.44762445161971      0.90162537794006
  C   4.92206800360500     -0.52837202514400      1.36958804191374
  Cl  4.96021326497232      1.08570802932864      0.73207718455871
  C   5.83886892850939     -0.87387438451130      2.30250690511985
  C   5.87464632137067     -2.20899949527921      2.87519525022695
  N   6.66919143064335     -2.68227827441301      3.75862532441229
  N   4.89468610529851     -3.06062523833325      2.36397300100823
  C   3.50642920462745     -1.25092386587577     -1.57353826344909
  C   4.43959609921923     -2.42210981934271     -1.87997489652772
  N   2.46350052063105     -1.08193692864688     -2.58825078892722
  H   0.77597967333002      0.91511468970755      1.54554313361368
  H   2.39167909992420      0.45505628508859      2.07538341932771
  H   1.12294425725197     -0.75924583248709      1.96463888749065
  H   2.37870538078921      0.76507056003791     -0.39008475481207
  H   1.02370486613869     -0.31025204760096     -0.56579674359833
  H   1.78374811355701     -3.10914062900404     -0.91854138256152
  H   1.16136428610084     -2.46244125060408      0.58200260730258
  H   3.46582999780001     -4.37021686091846      0.23556729482875
  H   2.41066549532846     -4.15605404984214      1.62786116653902
  H   6.57114122489153     -0.15851394742977      2.64795230914160
  H   7.33805832194021     -1.98053451426584      4.05693719804593
  H   4.89556863965274     -3.99457353015641      2.74914051780949
  H   4.09540785341710     -0.32953404540708     -1.58597155374996
  H   3.88183109080973     -3.36212686324385     -1.90965248491143
  H   5.24131498620452     -2.51830311659211     -1.14621506724461
  H   4.89554598205958     -2.28395231203216     -2.86150638120776
  H   1.97447733792005     -1.95675094284859     -2.74850082828923
  H   2.87784544746596     -0.82130534282674     -3.47520522339056
