27
Coordinates from ORCA-job 23076optt
  C   2.57550786411573     -0.41932312979841     -1.03758824481157
  C   2.66602540796385      0.63194004284795      0.03038841670995
  O   2.20174210379974      1.73551246818336     -0.09152549493689
  C   3.42746276146832      0.26937013793585      1.31369024994415
  C   2.97709236150643     -1.03691339772982      1.94498557885210
  O   1.94927879000466     -1.58647612011613      1.66982892338362
  C   4.91157057039764      0.26073923543879      1.04296294486809
  N   5.51552291154880     -0.88728716189229      1.00444750291796
  C   6.85561668160834     -0.94267599407613      0.76892356226755
  Cl  7.48482068978322     -2.56256582386386      0.77673222569048
  C   7.67202596138031      0.12622779659358      0.54825072835909
  C   9.14569531937785      0.06138002877817      0.30551593290536
  C   7.02253048028973      1.40243898550781      0.55554193584606
  C   7.57275832120222      2.64980242772805      0.34139665876739
  S   6.38804468666881      3.85574652307094      0.44159475361518
  C   5.13692323930536      2.77671549765782      0.77090003294509
  C   5.61624458211290      1.48116066622568      0.80801835433070
  H   2.39453583780488      0.05358198399762     -1.99931092876321
  H   1.74175735809382     -1.07765319081532     -0.78759461019732
  H   3.47697397086232     -1.03297740031436     -1.06350365786826
  H   3.20398823240716      1.06145774878882      2.03761654500216
  H   3.65317033366866     -1.43169908835971      2.72104750468554
  H   9.51149310859694     -0.96012649961946      0.29570823294014
  H   9.67699355211330      0.61541574571263      1.08308553468897
  H   9.38858457117587      0.52876995137812     -0.65158334201644
  H   8.59889133739548      2.90329310411906      0.13270109209500
  H   4.11874896534751      3.11514546262123      0.88576956777912
