25
Coordinates from ORCA-job 23070optt
  Cl  1.38315655703515     -0.77610129032717      0.64170322665617
  C   3.03093884763831     -0.46266448531599      0.31925602752885
  C   3.57198567994226     -0.48782915707118     -0.90433310902712
  C   4.98343262500430     -0.24368213133645     -0.99735761575931
  C   5.70812211411450      0.05883815805507      0.09723936340411
  N   7.08602775398324      0.33553768017510      0.06305394478196
  C   7.98226757743081     -0.62757790008837      0.72556280366377
  C   8.54899006125289     -1.61582276545744     -0.25545607704583
  C   9.39447425584857     -1.19071572170412     -1.18596341715327
  C   9.79387320195779      0.26113012303090     -1.27336639675942
  N   8.68923752517494      1.17754414122876     -1.54507773029114
  C   7.55918868963696      1.12292568420178     -0.98375103853697
  C   5.05041451668375      0.17186190412033      1.40808624845354
  N   5.52866309577215      0.54684058043030      2.50916232462383
  O   3.71488571422969     -0.19301880189493      1.43280054225274
  H   2.96659766051565     -0.71450243254027     -1.76610088843030
  H   5.47818845166580     -0.32082070507093     -1.95819256625133
  H   7.41408496021495     -1.12036299711607      1.51179611566399
  H   8.78650499491689     -0.06597968356559      1.20675704363451
  H   8.23668305028758     -2.65200412621535     -0.20725987113706
  H   9.79323286798349     -1.88049548929046     -1.92129417682004
  H   10.51399986814454      0.39783918491868     -2.07789394292194
  H   10.30733174788179      0.56650078112312     -0.35385978368925
  H   6.79353533417826      1.81854213220087     -1.32730336807488
  H   6.50118284850566      0.81701731750942      2.39179234123437
