33
Coordinates from ORCA-job 23072optt
  C   1.05278301332293      0.13216839066660      0.67528125781916
  C   2.45660301996049      0.04931813664428      0.10603305225027
  C   3.50195599635706      0.00105337513074      1.20377301466339
  O   4.82555595911213     -0.07813337725512      0.71838927432964
  C   5.30790005178996      1.04571708266540      0.03525386830933
  O   4.95908459195198      2.25245329133396      0.67328425451474
  C   3.83370495048381      2.94479636611507      0.33377735161083
  C   2.72651169119978      2.40314598158737     -0.32195964166484
  O   2.72362256607137      1.12173602401500     -0.81274494781635
  C   1.58875873152504      3.17291763978409     -0.54973089973854
  C   1.55397990269569      4.47341701584217     -0.10403481670572
  Cl  0.13677211129155      5.43558189720623     -0.37874332311289
  C   2.63848367512090      5.03628809438937      0.54961638553277
  C   3.79155650978077      4.28906296602161      0.77249024929071
  N   4.89189503826406      4.81575201540627      1.46785020805891
  C   6.13804288924768      4.90442628894210      0.71750384371282
  C   4.65516356546099      6.01620224339262      2.24112281229356
  H   0.84209956864916     -0.74632275799900      1.28613762833578
  H   0.32082759860437      0.17622721086755     -0.13048916635248
  H   0.93643306570382      1.02010864841340      1.29892823645658
  H   2.56136968257405     -0.83914047097978     -0.51821291645085
  H   3.34869749520234     -0.90096023712630      1.79611406878319
  H   3.39218760980802      0.86182321295206      1.87174567107779
  H   4.98174284589483      1.06044113943922     -1.00353792956859
  H   6.39227110402753      0.98089557302546      0.10015234129071
  H   0.75433617317069      2.72616926237876     -1.07107861733902
  H   2.58180758286974      6.06546734297325      0.87007736994123
  H   6.31796305931846      3.98875910942127      0.16531778292171
  H   6.96154659652174      5.05525076531516      1.41604536626835
  H   6.11771261672973      5.74909771843949      0.01453535651480
  H   3.76750859931314      5.89565116933846      2.86031166835067
  H   4.53191469315845      6.91331336226937      1.61582808248776
  H   5.51320744481771      6.17931551938382      2.89296311393458
