28
Coordinates from ORCA-job 2307optt
  Br  1.14188155169357      1.13258029258352      0.91758651731449
  C   2.89308616456622      0.69969571197904      0.36338961396794
  C   3.94550266758925      1.44661435245347      0.68844141467611
  C   4.09559647974718      2.72470909250676      1.46764082921465
  C   5.51652178156823      2.54181326328482      2.04156076551167
  C   6.16550815379338      2.23380970661083      0.67797662887711
  C   5.73769168109008      3.48380628006239     -0.13489232021093
  C   4.34983994149167      3.85844145244942      0.43520265264854
  C   3.15980961375770      4.18095507788614     -0.48464912449728
  C   2.83816540570629      5.31145295444728      0.50664291054446
  N   4.22771815431659      5.21748806486919      1.00064272549130
  C   5.28217385991361      1.11303657240301      0.19487681869065
  N   5.66164725876707      0.12718867908572     -0.52081164321061
  C   4.76132780638752     -0.84984519502892     -0.94174882519618
  N   5.07161599134508     -1.87897983012002     -1.60180446957813
  S   2.99707103322037     -0.74006753440624     -0.59420360811113
  H   3.28690238248387      2.93551585038618      2.16458283893850
  H   5.59218639715409      1.72255920310973      2.75560009600490
  H   5.91157508409595      3.45602465993064      2.48695124271602
  H   7.22546474201604      2.00148840642230      0.65022918350307
  H   5.70726764277958      3.29013313550427     -1.20739311874795
  H   6.42960759119866      4.30658283930879      0.04532196792135
  H   2.41599108944211      3.39964861112610     -0.62612698696609
  H   3.48912435831862      4.56273436235315     -1.44945933533830
  H   2.08651443987684      5.00517675177101      1.24064806357382
  H   2.56970720164162      6.28529416221073      0.10034610104597
  H   4.35336715986269      5.29027305224059      2.00542687986371
  H   6.07613436617604     -1.87512997542994     -1.77797781864767
