27
Coordinates from ORCA-job 23086optt
  C   2.86191674581736     -0.63117336323414      0.93838323325432
  C   2.74629102471261      0.21070616641309     -0.32869390061409
  C   1.29773025745145      0.60642138069307     -0.61996164307863
  N   0.76871168905541      1.51362115168539      0.40953678113124
  C   3.65486737002544      1.43990982379179     -0.23079577880045
  O   3.41648723772908      2.22655341795246      0.88566828325465
  C   5.18130427089975      1.11810492300123     -0.41013391988657
  N   5.09339607270809      1.82874162250055     -1.68553412971127
  C   3.81697006736708      2.21629707358711     -1.55026090894823
  C   3.29767669886830      3.05964575721049     -2.47159720056678
  Cl  1.70360090765999      3.70058212525562     -2.41745743562714
  N   4.10204078298932      3.47696313186962     -3.49741078067752
  N   5.30377934752583      3.10489952004779     -3.63144557054831
  C   5.93000901909799      2.21785782975036     -2.70688244526617
  N   7.12836031820023      1.81689075832455     -2.77742009054369
  H   2.27278107498953     -1.54391354747106      0.84112232475487
  H   2.50891173419524     -0.07815860583658      1.80917459625947
  H   3.89621741521756     -0.91675804032711      1.13524185892494
  H   3.09228656004245     -0.38004310889541     -1.18360236520104
  H   0.69656348146929     -0.30292185864866     -0.72187778546949
  H   1.25483827054588      1.12937413116542     -1.57525981106535
  H   0.36864339912056      1.00133527893131      1.18614873644793
  H   0.04171267743590      2.10577523763221      0.02896377314921
  H   2.44324253030081      2.29935042084386      0.96270397246436
  H   5.46211893850360      0.07071007951341     -0.50914221773234
  H   5.81497881561740      1.63362436977825      0.30902345516096
  H   7.57156329245380      2.22560432446535     -3.59649103106486
