29
Coordinates from ORCA-job 23081optt
  C   0.77582387599574     -0.05156040766865     -0.09874171316542
  C   2.27469789549399     -0.10019708587819     -0.08775976479993
  C   3.03338249419102      1.06912693260669      0.05130561692958
  C   2.37691447892834      2.41011383148123      0.17917424601559
  N   4.35990669913931      1.02854833769477      0.08891025894387
  C   5.02530624244848     -0.11674764583516     -0.00621083922404
  C   4.34575357880758     -1.31852090116218     -0.14107185966112
  Cl  5.16068387784094     -2.83653943259978     -0.19242505350667
  C   2.96043318267738     -1.29831420693182     -0.18341007073533
  C   6.53646355685533      0.03769832466873      0.09834396181220
  C   7.33793233501356     -0.49382247478109     -1.07447587033893
  O   6.85968642913329      1.37680026529359      0.31225428778268
  S   7.09082651350798     -0.80065529481913      1.69555896632373
  O   5.94924077787977     -1.09415169154754      2.51367077460549
  O   8.09357687168131     -1.79873722065679      1.42088875173480
  C   8.03804076337170      0.60288664112606      2.47811103073200
  O   7.70810088771940      1.04719190867499      3.52018896401800
  H   0.39471574127877      0.36390486034224      0.83641065984907
  H   0.35349919108439     -1.04665112904598     -0.22530746273281
  H   0.40681944790130      0.58213269318434     -0.90737715647091
  H   1.75485825742424      2.62739227295427     -0.69142845712367
  H   3.13251492506410      3.18481776119174      0.27734887923810
  H   1.72599391400534      2.43923360327964      1.05577292537876
  H   2.42344256889612     -2.23424290897308     -0.27443155910223
  H   6.97234471841565     -0.00835010777059     -1.98011147947636
  H   7.26151160563435     -1.57150843530630     -1.17541500713039
  H   8.38500695725361     -0.23078027600030     -0.93116878588004
  H   6.00625315466829      1.85072699311729      0.39173139058800
  H   8.95026905768844      0.86320479336100      1.91766436539595
