28
Coordinates from ORCA-job 23091optt
  Cl  5.13301181657165     -7.48759058579127     -0.73839154820330
  C   4.98380797131837     -6.65900303243984      0.77839990115359
  N   5.48105537582246     -7.30867957290621      1.75727007457214
  O   5.32740674483918     -6.71375880747066      3.00215051296795
  C   4.40125766636056     -5.75112504580754      3.23029295772015
  N   4.08156944558030     -5.40028157483080      4.40082294787600
  C   3.82445003994442     -5.06350922292265      2.05860965545518
  C   4.25482595994776     -5.40945409739182      0.81351703058078
  C   4.04698325795785     -4.59918485597546     -0.45790460015489
  C   5.39301429421011     -4.31274179142655     -1.18549313919785
  C   5.80968668761213     -2.89612305412870     -0.76229344929575
  C   4.51007975993001     -2.28914229752088     -0.32537327113180
  C   3.54631260498423     -3.18892124272491     -0.17351840974585
  C   2.16519990933977     -2.91065862395488      0.32482103929706
  C   1.79171097989610     -3.88793236081334      1.43746472781301
  N   2.88956332262478     -4.13121920407989      2.35915022015669
  H   4.58101124033250     -5.93953135505978      5.10437951997520
  H   3.36942409838083     -5.14389500325925     -1.12242164939418
  H   5.20863747171716     -4.33342000936586     -2.26003057893441
  H   6.16098367975262     -5.05188837288523     -0.97436294216036
  H   6.28603947120576     -2.34869727006325     -1.57671429295274
  H   6.52151302636167     -2.90985643228147      0.06888670936816
  H   4.38637996683773     -1.23349310713906     -0.11566662162213
  H   1.43140004730993     -3.01023387549386     -0.48090778393504
  H   2.11767327855237     -1.88337106844511      0.68871317667979
  H   1.49354823697103     -4.84522462030593      0.99548531611437
  H   0.94586268621455     -3.51085249646649      2.00976730326773
  H   2.71159095942409     -4.06421101904922      3.35234719373050
