27
Coordinates from ORCA-job 23093optt
  Cl  1.08827678352149     -0.32556041939493      0.15191110700416
  C   2.80523042162700     -0.15780059087168      0.08891891330913
  C   3.38027997195445      1.09086831318905      0.02102323054915
  C   4.76739056139603      1.20750462144239     -0.05643332564637
  C   5.44015837605835      2.55154190172690     -0.10836968846571
  C   5.41002690873540      3.28199600751642      1.23827641250395
  C   6.04197615739577      2.46851299672708      2.37484355271960
  C   7.39757944599934      2.03770660403123      2.03642352318062
  N   8.44708845878242      1.70238219416811      1.72115144808005
  C   5.49479811890528      0.02638561979340     -0.04443134469690
  N   4.94665069021960     -1.18475008522847      0.03474320083700
  C   3.62977383593514     -1.29656074602809      0.09283881554807
  N   3.06389644996445     -2.56827293023103      0.09410167186616
  C   3.71644580027778     -3.63340069040634      0.81103791499305
  C   2.42309567155771     -3.07652380587958      1.29158464471666
  H   2.74578504774761      1.96998775027284      0.01243567637017
  H   4.95686519693903      3.18111666836633     -0.85815380021354
  H   6.47844920437336      2.42109997620033     -0.42090508071959
  H   4.37854454075485      3.50151325760868      1.52183508106982
  H   5.93093848802803      4.23589770806266      1.14282321528540
  H   5.45212708515128      1.57202357214195      2.57581051948824
  H   6.08004623747626      3.05259749906843      3.29466564238076
  H   6.57915588666901      0.05782839177641     -0.09555914996999
  H   4.61372164470938     -3.37217614060846      1.35792646006792
  H   3.73442795109117     -4.58761498239440      0.30229550842652
  H   2.45413942049189     -2.44524798724541      2.17263092921769
  H   1.49613164423781     -3.61005470380384      1.13157492209797
