27
Coordinates from ORCA-job 23097optt
  Cl  4.00074455107984      2.27195436887314      1.88857636238662
  C   3.73614650559733      0.72235119103039      1.20246845848667
  C   2.48846563134605      0.27550909094214      0.96313438558058
  C   2.28348906173789     -1.00085434219695      0.35371612126372
  C   3.35867571869522     -1.75909787076220      0.07926351478748
  N   4.63678249926705     -1.35193708767103      0.38621659756298
  C   5.72956478064884     -2.18273470606656     -0.02448322906244
  C   6.76625930088462     -2.65290295478170      0.95114218643188
  C   6.54436383334398     -2.52119790122666      2.43569599084929
  S   5.86059245864862     -4.12729078037705      2.88975657471219
  O   5.03700110281878     -4.06413173722560      4.06123670825501
  O   6.90895325430402     -5.10723035477840      2.80035521828067
  C   4.87792932095832     -4.23867782855776      1.38174901522831
  C   5.77765093099857     -3.63988398293358      0.32913632545866
  C   4.93222980962512     -0.04931521258065      0.84837295087644
  N   6.10015174012223      0.44431185069311      0.96975028532879
  H   1.64270756173718      0.89873691286902      1.22062916255533
  H   1.29292550886872     -1.35424540228509      0.11475443047073
  H   3.29117054350147     -2.73074436757574     -0.38927784743765
  H   6.11906627994300     -1.93521462216713     -1.00715344923945
  H   7.78944020660677     -2.67368095396464      0.60691219471569
  H   5.81318927903420     -1.76270868244965      2.71505397393507
  H   7.46374055034969     -2.37430637952660      2.99650407473298
  H   3.95632995259728     -3.69253193748016      1.57561520141541
  H   4.65988664846571     -5.28986283183602      1.20977072401271
  H   6.14803805131318     -4.30985358864750     -0.43158866951898
  H   6.83050491750627     -0.18745988931710      0.66069273793130
