23
Coordinates from ORCA-job 23095optt
  C   1.15682356208096     -0.44052500960311     -0.11050799523041
  C   2.60367719451714      0.04537267508452      0.02798811752548
  C   3.49289724218121     -1.05053139582775      0.61155575564461
  C   3.08834874875350      0.56572470716333     -1.30315745875523
  C   2.80456039538352      1.80195372760572     -1.79256931384416
  Cl  1.88831730348425      2.92705963627756     -0.86538392455288
  C   3.21613456025962      2.19845007106019     -3.11958070997440
  N   2.83872436974406      3.34405344819475     -3.56717106038290
  O   3.26309598243093      3.59765142830288     -4.88379661662415
  C   4.05211791491119      1.17638433648491     -3.78938171183963
  O   4.62127178253934      1.42747745951737     -4.97217700722272
  N   4.30043689188608      0.02070574821955     -3.29094290821634
  N   3.80076979804488     -0.27702455170207     -2.08255919335193
  H   0.78554413185357     -0.79246869440035      0.85275777076079
  H   1.10096988683404     -1.26841772921641     -0.82051766192486
  H   0.50651624231997      0.35965769002049     -0.46136768461804
  H   2.61578820673887      0.89551255455972      0.71093994701795
  H   3.41205884187487     -1.98481020170829      0.04907862630840
  H   3.16926140910071     -1.27301438379418      1.62788592725711
  H   4.54115588671890     -0.75192813017855      0.64776491489780
  H   2.99645572173255      4.50835455183660     -5.02958941774118
  H   4.32506430377165      2.29765439001293     -5.28483645186509
  H   4.06600962283814     -1.18529232790982     -1.74543194326819
