28
Coordinates from ORCA-job 23106optt
  C   1.06763700373125      0.10872492533196      0.43417517082272
  C   2.53979722855027      0.09498501885591      0.04864266011465
  C   2.76380557150701      0.03692114287248     -1.46823734486088
  C   2.16256782677811      1.20305872719803     -2.19498034236149
  C   2.84875961238168      2.42046914129218     -2.29030643895383
  N   2.38842561898093      3.51258278839377     -2.87398180628882
  N   1.19167198980007      3.49466618234483     -3.42953908117026
  C   0.47989982492277      2.38224824782803     -3.40841306798593
  C   0.92346651571435      1.20879528505643     -2.80137417707080
  Cl  -0.09107090148374     -0.18605764241022     -2.84747673427201
  C   3.36853848089311      1.14475613575313      0.83238758597682
  C   3.84763365554907     -0.00713329612639      1.73978610617880
  N   3.30779453934912     -0.94961837729669      0.76151993448437
  C   2.86974915107591     -2.21519438384043      1.05061511776476
  N   3.17722558014811     -2.93468375339104      2.04952672643368
  H   0.57429890596706      0.99938259770945      0.04063880455901
  H   0.96867582155154      0.11542900707960      1.52115634699657
  H   0.54844938442669     -0.76801075398821      0.04601326471224
  H   2.34870468903611     -0.89780461504048     -1.85005092066666
  H   3.84051539932639      0.01672577454173     -1.64527321717847
  H   3.84582894087507      2.51059547890082     -1.87362609813894
  H   -0.48831761366647      2.42212298171657     -3.89164234255321
  H   2.79984493629055      1.93917701307707      1.30883512870267
  H   4.17956467359376      1.57195448940486      0.24685595003437
  H   3.32514589488500     -0.06023717314835      2.70096552455099
  H   4.92101381564814     -0.08872236047063      1.90794612881586
  H   2.20192288044118     -2.62570717148041      0.29127347746426
  H   3.80645057372691     -2.44142541016400      2.68456364388954
