27
Coordinates from ORCA-job 2311optt
  Br  2.15973004668129      0.05636776132916     -2.51774384397141
  C   3.27589744815154      0.03583834351369     -1.00093662740378
  C   3.17611259729929     -0.95606687981721     -0.08925888278777
  C   2.41866303606450     -2.24323419889930      0.16303618678451
  C   2.69893649038333     -3.35362944835963     -0.86806303489164
  C   2.76222770773843     -4.63704602746583     -0.01872153243041
  C   3.51943312101176     -4.21081727391475      1.23581591383797
  C   2.98780744990293     -2.79961755481817      1.54840710813246
  C   4.02767270630146     -1.77325780538333      1.91934441388920
  N   4.93890950824491     -1.45476367565522      2.80289356165157
  N   5.54460581920693     -0.28627788097875      2.39544487608728
  C   4.98267902711440      0.08038424709803      1.25445332444092
  C   5.08242036310495      1.12638548110061      0.28506354805927
  C   4.24790296460105      1.08390924524674     -0.79374563793347
  N   4.03428126662897     -0.84083446164196      0.95074040571558
  C   1.35264218876804     -5.08301679089826      0.28765892421089
  O   0.85718967950119     -5.05917023512552      1.37967388525780
  H   1.34777209338677     -2.05009159297210      0.23301820338429
  H   3.66839864960209     -3.19266884386277     -1.34287094644082
  H   1.94707614888674     -3.38923062205588     -1.65693673280865
  H   3.25237160797051     -5.44256676334073     -0.57173002515330
  H   4.58797878619598     -4.16950034470838      1.02069618897221
  H   3.35980636029130     -4.89406540695063      2.06719673797703
  H   2.19284743791037     -2.85479419427482      2.28930029592324
  H   5.79982771132945      1.92401431753709      0.40837149989552
  H   4.30485286044542      1.86361777689429     -1.54111196695306
  H   0.76295692327635     -5.41586717159636     -0.58999584344542
