25
Coordinates from ORCA-job 23115optt
  Cl  3.42244874347204      2.08548126658393     -3.06455008595903
  C   4.48648061648347      1.22421342585393     -2.00310844607703
  C   4.23929243593603      1.25372160658105     -0.63399646727839
  C   5.19503200577584      0.77996872893492      0.25965612786177
  C   6.31628824136501      0.13788795546907     -0.25195971666324
  C   6.39224260599867     -0.10072349081416     -1.62652991121159
  C   5.60603921433583      0.57759927084128     -2.52839545500520
  C   6.21348485509801      0.83101554092190     -3.89694320366300
  N   7.65244215658746      0.54396278671400     -3.87481369235862
  C   8.49750259755021      1.33831127163216     -2.96476376392829
  C   9.64356573305376      0.49539758086031     -2.33148531893060
  C   9.93134906522430      0.76093704817230     -0.84507016003056
  O   10.93716877741605      1.29754191655550     -0.46671525169238
  C   8.83648294008744      0.31621479398816      0.02317826043943
  C   7.66156087790692      0.13636898064601      0.25327006540946
  H   3.35451503341036      1.75933466641209     -0.27252742333453
  H   5.10217409148104      0.98807224713148      1.31668030230258
  H   7.25574039238820     -0.62150944781596     -2.00416883922793
  H   5.98172028105493      1.87285966378946     -4.15678618122701
  H   5.76055291540900      0.20512098403381     -4.66878157330226
  H   8.01939220746709      0.55661030447214     -4.81530719165569
  H   7.87028965343184      1.74761640576078     -2.17365986912386
  H   8.93734467299493      2.19876074356946     -3.47535826618561
  H   10.58409701839154      0.66246442248523     -2.85526191706323
  H   9.38179286767986     -0.55922867277885     -2.43560202209515
