33
Coordinates from ORCA-job 23114optt
  C   1.57191386881413      0.15826918407261      1.70915883596665
  C   2.66004330703045      0.02517580469911      0.68410522770325
  C   2.89245557970782      1.00763456968214     -0.20246518184188
  N   3.89278430207710      0.93228096690851     -1.14927018596182
  S   5.27615125126280      0.08088461182667     -0.87108312991209
  O   5.81309020270725     -0.23077724175329     -2.16386283423900
  O   6.11815147158955      0.77810695966520      0.05313045703173
  C   4.61643664625932     -1.33546234107948     -0.08400551109291
  C   5.45227098831346     -2.60044736357550     -0.22237719536495
  N   5.32401825598127     -3.24125694774274     -1.52386913873091
  C   6.95483231341987     -2.37938831441751      0.05811307138146
  N   7.33004395918766     -1.82091787430107      1.33665936393116
  C   6.90057725040316     -2.54552396878824      2.49406491531199
  C   6.99051773827281     -1.89595807017299      3.82913363504634
  C   5.63594262989694     -2.21084553083731      3.24651054493289
  C   3.46394341083087     -1.18662833347931      0.59606380574130
  Cl  2.78907266559066     -2.56913777548508      1.41182509087440
  H   1.11769920815413      1.14553054290420      1.64364732228987
  H   1.96525419490518      0.02802549678713      2.71858544633911
  H   0.79489481797965     -0.59256416869250      1.56425059775021
  H   2.27917905623685      1.89840902433653     -0.23427676812009
  H   3.95320558908093      1.60762294155985     -1.89749869364098
  H   5.07812886302037     -3.29181356790520      0.53166433912131
  H   5.60877003356260     -2.60392066524794     -2.26071673138060
  H   4.36512207235322     -3.51336290155606     -1.70353888091381
  H   7.38277601450775     -1.75219857407044     -0.72728823631197
  H   7.41392042914481     -3.36520761926912     -0.04749386862949
  H   7.11341038845115     -0.83310931419914      1.39964875884370
  H   7.17124284214501     -3.59452026404809      2.44696297680470
  H   7.29375956853266     -0.85737550195680      3.84477682473493
  H   7.33971253068898     -2.48014735706827      4.66844470955256
  H   5.06312347622750     -1.37067530869897      2.87641686736191
  H   5.05255507366396     -3.00570109809687      3.69058356542097
