18
Coordinates from ORCA-job 23119optt
  Cl  1.04483452979686     -0.25623978918401      0.03809988451541
  C   2.74228659068365     -0.10541912614855      0.04084728979817
  C   3.40277263327908      1.08682367826290      0.04260634685777
  C   3.07171158795978      2.46641802688566      0.04304057275696
  N   4.17534770725368      3.17448104398833      0.04513158866048
  N   5.27813700022048      2.35823886930334      0.04635161389963
  C   4.85233274455066      1.12306524879813      0.04486812326220
  C   5.56409016767515     -0.11551896656486      0.04505852447678
  C   4.81114157582119     -1.26294468748631      0.04328388223063
  N   3.44362749021152     -1.25538653909037      0.04126686017446
  C   5.46031527892798     -2.55430873726682      0.04357491313721
  O   4.89526271432140     -3.62783697314567      0.04243092896995
  N   6.82864612717297     -2.40446085107088      0.04555581760207
  N   7.54161919286561     -1.26091763478156      0.04710556177523
  N   6.94979544880518     -0.15800739752176      0.04691411735905
  H   2.09740671193197      2.92922075896355      0.04180234693177
  H   2.98162449800412     -2.15960704756142      0.04007267883906
  H   7.39904800051870     -3.23959987637970      0.04598894875318
