31
Coordinates from ORCA-job 23128optt
  C   1.38285564624593      0.56443020656211      0.62512538499037
  C   2.71572519536126     -0.00602327998534      0.12701900334604
  C   3.74884582899623      1.10493438707436     -0.06234908844060
  C   3.12909749432846     -1.17155655125728      1.00339119282743
  C   3.86836198522086     -1.09305786559852      2.13787374438676
  C   4.35940953732205      0.23328710736218      2.67162129832564
  N   5.68523754100068      0.46090646258181      2.51090036611903
  O   3.61057896641796      1.02326887008125      3.19895547595306
  C   4.18139690918331     -2.25840644401790      2.90422520933303
  Cl  5.18539410506590     -2.15375992009690      4.31884491841133
  C   3.67791722363273     -3.47230301525495      2.55081142855362
  N   3.89701814072187     -4.62546517046028      3.28058283801097
  N   2.85757724696408     -3.56475564700627      1.45301684963505
  C   2.15229367711405     -4.80459628622244      1.16872954356028
  C   2.61116667169002     -2.48006427124005      0.58422458533329
  N   1.94282282532806     -2.59438722594411     -0.50344757125876
  H   1.02352652738362      1.33294117270741     -0.06180466308118
  H   1.51192992341393      1.00875998889494      1.61315532315437
  H   0.62706688613806     -0.21945743770489      0.68398249532016
  H   2.53450566903854     -0.44733176459597     -0.85200572191228
  H   3.82855301967728      1.75715202299142      0.80633611100416
  H   3.43743647521229      1.72617276040278     -0.90365468760960
  H   4.73720317078610      0.70357157408626     -0.29089576941908
  H   6.29794504028763     -0.26293504825488      2.17919493856745
  H   6.08294379347819      1.27223832112453      2.95551358371745
  H   4.57615518543032     -4.50107183162230      4.01651960367253
  H   4.07459673602687     -5.45560108951641      2.73482598973465
  H   2.12737169385775     -5.42829806958576      2.05545482417884
  H   2.61405916045935     -5.34893328805751      0.34115776127454
  H   1.12317604510627     -4.56701307775267      0.90091859615674
  H   1.65883167911031     -3.54164558969458     -0.71622356384530
