23
Coordinates from ORCA-job 2312optt
  Br  1.22664197190957      0.16049841155679      0.05337014895188
  C   3.09106727899321     -0.07095124698620      0.05684330184721
  C   3.66800628411142     -1.34127900889218      0.05762343179992
  C   3.03180237651963     -2.62158750127039      0.05737707070922
  C   1.71725579092958     -3.06447948434193      0.05783312115562
  C   1.72176309646588     -4.48671826483191      0.05731583839819
  C   3.01242757532913     -4.95746859638443      0.05645438383338
  C   3.87159405132295     -3.82726007671423      0.05654001680312
  C   5.23557218029213     -3.73277493055424      0.05626192718372
  Br  6.28814400633259     -5.29359264169223      0.05410379588524
  C   5.89828932757237     -2.48434923012297      0.05753799975198
  C   7.31081052609791     -2.33547914415205      0.05797976361097
  C   8.49219742261693     -2.11101404877969      0.05837302780690
  C   5.11166373668848     -1.33214912232108      0.05837252342994
  N   5.72884370631785     -0.11275480850878      0.05963824746725
  C   5.05415091889637      1.04190689142564      0.05962049653936
  N   3.75779952511151      1.09261515460920      0.05802450972396
  H   0.82631674779320     -2.46444667827921      0.05852719049199
  H   0.83025274794457     -5.09655715407147      0.05763592246331
  H   3.33663088030571     -5.98554548211496      0.05602771014717
  H   9.54564320399992     -1.96132685617797      0.05834928141931
  H   6.74456438341666     -0.11672340658553      0.06040610237239
  H   5.63756226103238      1.95343722518984      0.06078418820798
