24
Coordinates from ORCA-job 23132optt
  C   3.64433334610527      0.27780173854175     -1.43219654259483
  C   2.61378673942665      0.06843656513830     -0.31833905774044
  C   2.95391415995581     -1.12431446504647      0.50572899991745
  C   2.43421625147069     -2.38564463028854      0.54280422473638
  C   3.21856085736319     -3.12017719176132      1.52877466473154
  C   4.18494918648643     -2.16498091637647      2.01070882818108
  N   4.02237392555455     -1.02651149977058      1.40639279048044
  C   2.89916509137229     -4.40496920495300      1.73464001752825
  O   1.91746917207874     -5.02561060633146      1.09659301957914
  N   1.11596023575747     -4.36866828067354      0.16295097843853
  C   1.39011426750762     -3.13343508512082     -0.07163883409104
  Cl  0.35238837386589     -2.41144184329549     -1.23455337946696
  S   3.73481033871703     -5.49548960556522      2.88619610912365
  O   4.07680694157948     -6.69481239859457      2.20425704072691
  O   4.70806649198632     -4.70766027909485      3.56333934021426
  C   2.45019763397690     -5.82631548491618      3.97304372747693
  C   1.55961467344896     -6.05344656586832      4.73878117061909
  H   3.41524426749883      1.17758337130699     -2.00243072239464
  H   3.64657729716228     -0.57226466913041     -2.11572686665801
  H   4.64350710966813      0.38044195567079     -1.00927630350914
  H   1.61628094278895     -0.03393075932452     -0.73982011120631
  H   2.61205548570913      0.93784581153341      0.34241164886664
  H   4.94400761502760     -2.33472898048685      2.75826243737293
  H   0.76959959549173     -6.25670697559250      5.42509681966814
