28
Coordinates from ORCA-job 2313optt
  Br  1.03902448589996     -0.00931052098714     -1.08502701400755
  C   2.89605240236184      0.23140905276610     -0.82768116832975
  C   3.72940660389000     -0.84260125044308     -0.57665909001780
  C   3.40826338792648     -2.30447245737055     -0.41580437277657
  C   2.38428694436715     -2.61046227289109      0.70182015370258
  C   3.08685312621576     -3.66855170691365      1.59463207008887
  C   4.56092662060327     -3.21093486499283      1.52660187387234
  C   4.76983753835043     -2.91816536869682      0.04122994637568
  C   5.86237976958070     -1.86766248515195     -0.23386698965491
  C   5.08945741987437     -0.59085324541213     -0.43222370581346
  C   5.55032625502176      0.71284537454739     -0.51624400316416
  N   4.74005226438037      1.74408547338811     -0.74324723574537
  C   3.44363012912394      1.50822745794746     -0.90194077949114
  C   2.93939002345299     -5.01588442577784      1.03102154734092
  C   2.83823685341966     -6.10533563207204      0.54695878263562
  C   2.56780904483451     -3.64096116094959      2.96720454113354
  N   2.17136640951647     -3.58138295391516      4.04024754155037
  H   3.06985910840516     -2.72154746262144     -1.36603940756199
  H   1.42932925494728     -2.97149204754044      0.32934275200129
  H   2.19835570478480     -1.72305848533253      1.30809127545579
  H   5.24629349190610     -3.95455049610213      1.92931915696363
  H   4.65431045027532     -2.29187908545623      2.11202047805541
  H   4.96856673678301     -3.85144448419001     -0.48279140769957
  H   6.42472838104333     -2.10826966603039     -1.13844384570980
  H   6.58392275207915     -1.79954482549519      0.58256032535199
  H   6.60403098727501      0.94287358042741     -0.39771535382183
  H   2.80425811469396      2.36121278208220     -1.09741708057120
  H   2.74004573898716     -7.07828882281640      0.12705100983705
