30
Coordinates from ORCA-job 23149optt
  C   0.96351977983098      0.24903952306624      0.26583566129096
  C   2.44661014902160      0.02319377842324      0.12826531747997
  N   3.17090036673710      1.13141643253349      0.08482865379421
  C   4.49333039880710      1.07545501206569     -0.02722814262902
  C   5.15683210773749     -0.14452808927540     -0.10963046241434
  N   6.54147743732759     -0.15083319068983     -0.23307795719704
  C   7.20053833935715      1.03554423639359     -0.26342202633089
  Cl  8.91984998291949      0.85229923590375     -0.41779716752205
  N   6.69099199143726      2.18810713182013     -0.19131661222142
  C   5.28780228364112      2.33411226210813     -0.06873517233724
  N   4.73405226074835      3.46791863744633      0.00216035793695
  C   4.41348086782723     -1.31783338575103     -0.06534758611177
  C   3.03862166857933     -1.26015172934475      0.06241985501430
  C   2.27383229425342     -2.57887325492652      0.08545799313368
  N   1.25299604498518     -2.73412806492923      1.11114475206638
  C   1.66319701534427     -2.89815409340927     -1.28123119794084
  N   2.69363709441847     -2.89658343277275     -2.31206982650021
  H   0.75232314107420      1.28379316685044      0.00814953844889
  H   0.64014152539378      0.08502927576061      1.29601564792388
  H   0.37746969772179     -0.40353316143888     -0.38027250763326
  H   7.05463602588461     -1.01414999926614     -0.30581585633965
  H   5.45186264137487      4.19054667055823     -0.04214497474093
  H   4.90900181315201     -2.28015343059145     -0.13826471455164
  H   3.02030490602395     -3.35677673696484      0.26252834878169
  H   0.45693136713031     -2.13212141582022      0.94841461096197
  H   1.61664681010158     -2.51703854093204      2.03097206244918
  H   0.83660555257287     -2.20460174952691     -1.48403585996529
  H   1.23508768621599     -3.89826967314141     -1.21222406522181
  H   2.98784446388102     -1.95156915559224     -2.53006541415418
  H   2.34647428649986     -3.30815625855692     -3.16851325547047
