25
Coordinates from ORCA-job 23147optt
  C   1.18390955408384      0.16920154634031      0.07381123630015
  C   2.67338551130786      0.03755897293110     -0.01539050605633
  N   3.39850039010688      1.14542873305157     -0.10841437686959
  C   4.71792586026511      1.05174792329159     -0.18263311464857
  Cl  5.57783119904463      2.55680038754023     -0.30291179764960
  C   5.45847125688900     -0.11812758305640     -0.17442588993297
  C   4.69327245943434     -1.27273473333034     -0.08446639145190
  C   3.29613472715044     -1.21318063450571     -0.00042963317709
  C   2.81488188915474     -2.56346385820291      0.09596845279611
  C   3.88795182019374     -3.38771214589425      0.06335629289859
  C   3.82383566965515     -4.86103812841756      0.03062248966576
  C   4.65664187493744     -5.70672101736901     -0.83580728246998
  O   4.88781197264959     -5.63285102684606      0.56086285567926
  N   5.06314076240673     -2.61623252881967     -0.03969963510427
  C   6.37878639012881     -3.07656723599284      0.01624518042317
  O   7.32687649764057     -2.35476559013157     -0.10741949220832
  H   0.90705410148425      1.21968853684941      0.04590266441922
  H   0.81327691430525     -0.27282814850060      1.00103785816953
  H   0.69925903202229     -0.35064762311191     -0.75496071275459
  H   6.53287028940320     -0.12114996332007     -0.23938846588559
  H   1.78813110163790     -2.88587441107487      0.16364573231031
  H   2.83590595917177     -5.23074262377847      0.28490065655265
  H   5.41300867265605     -5.24141265295477     -1.46014933263983
  H   4.26248408884089     -6.65129554675795     -1.19121367606015
  H   6.44765200542948     -4.15208064793920      0.20295688769403
