25
Coordinates from ORCA-job 23145optt
  C   1.08341228831520      0.09023152097312      0.91289690706561
  C   2.26463624751040      0.15263787538126     -0.06564773775015
  C   3.20513100642868     -0.97342356926737      0.29742751992553
  O   4.42408718862399     -0.92696535824721     -0.44449220657646
  C   5.49053704695072     -0.38513935831344      0.15354880301598
  O   6.57725341817492     -0.86461627898801      0.05868256352231
  N   5.22306891754901      0.79346672689181      0.88151445369093
  C   6.30626968939587      1.38877315340883      1.61326804782252
  N   7.28945151358698      0.84099195458802      2.15670861571131
  S   6.11398178434281      3.14447874490474      1.66338837257595
  C   4.59665338486172      3.04543108717373      0.80981924623332
  C   4.21025573867167      1.72349213777700      0.53166950311616
  C   2.94330838041130      1.49840909648676      0.00464753755241
  C   2.25871053944023      2.65767767152600     -0.39736891981470
  Cl  0.76027979596088      2.54763935282310     -1.25960505499662
  C   2.75717535019855      3.92053851228231     -0.14428431019945
  N   3.90230925344708      4.11509886316214      0.50373228301839
  H   0.61308627999473     -0.89318139499264      0.86674248943532
  H   0.32731320240940      0.83656434642081      0.68787268406971
  H   1.43605405659869      0.25440617050365      1.93287358186458
  H   1.90134353907709      0.00179943187364     -1.08495229907490
  H   2.75133053760949     -1.93478548361306      0.06394018826701
  H   3.42875217253611     -0.95331576190669      1.36678676485567
  H   7.32418274679574     -0.16284690340311      2.00514274919181
  H   2.20441592110873      4.79763746255460     -0.45631178252223
