31
Coordinates from ORCA-job 23141optt
  C   0.83888941503489     -0.17373796157393     -0.73949738494126
  C   2.35157528671667     -0.28205116291583     -0.76400874741385
  N   2.92626390982173      1.03528557340185     -1.00020659909285
  C   4.26798249001393      1.29003196749928     -1.00774971437472
  C   4.80446795713678      2.54966230921136     -0.96803994694268
  C   3.95286325685760      3.79439333718412     -0.74114285278522
  C   3.36935564549137      4.36132498846753     -2.05054448398737
  N   4.46829616976833      4.60668239901944     -2.98868066594787
  C   2.89893786777031      3.65388804115967      0.26679243246689
  C   2.01353696541082      3.57220408276412      1.07078039158832
  C   6.22496111879699      2.76715752240538     -1.15372059577836
  O   6.64289197258325      4.03492654689920     -1.33372651076385
  C   7.17634351427307      1.79194713301506     -1.13617940722248
  Cl  8.83635366146816      2.23243450762672     -1.33068273784060
  C   6.92037482618273      0.37984441752380     -0.98511695879628
  N   7.73298496481261     -0.58810630379054     -0.87227448774220
  S   5.23225510803617     -0.16018387423972     -1.09186932707985
  H   0.39363282794364     -1.15216676196383     -0.56611078753400
  H   0.46331194674533      0.21300561332477     -1.68725133128617
  H   0.51189047366002      0.49298849673651      0.06097504740459
  H   2.66378196313073     -0.95753410753397     -1.56310018312702
  H   2.72007193922708     -0.70109442338126      0.17846310483274
  H   2.34309232810076      1.80038797202345     -0.69248744543396
  H   4.62712528878289      4.55737903711999     -0.34396707894314
  H   2.87037139674908      5.30588009315600     -1.83488853878813
  H   2.62154184405719      3.66948573819224     -2.44871453906673
  H   4.24986099526026      5.35681377711825     -3.63102107351898
  H   4.65655607340606      3.77889029619265     -3.54388561700100
  H   1.24373654563099      3.50414502546407      1.80235254416280
  H   5.98608909063626      4.50364191532858     -1.89888584940809
  H   8.69460315649421     -0.25352619543500     -0.87761065563868
