31
Coordinates from ORCA-job 23142optt
  C   1.10706292670808      0.14924668530790     -0.07516956988546
  C   2.61912888946927      0.03562787245079      0.04726189319519
  N   2.91832357884705     -1.35218932360171      0.36297548552104
  C   4.30295506546983     -1.77541264957567      0.36042806745029
  C   5.13783280317836     -0.96660333394043      1.36160400336022
  N   4.38604043031845     -0.76890739544625      2.59591239249120
  C   3.30241505225869      0.22540346926241      2.51211466174504
  C   3.20078143511779      0.99608144885235      1.17238779119134
  N   2.43034896462300      2.19764954286667      1.40684150673996
  C   4.58668057568757      1.39779912430974      0.71104440369187
  N   4.78077892346755      2.59070714065364      0.24387383541026
  C   6.02885538550761      2.95338227084399     -0.22153077363166
  O   6.31702138106859      4.03269410442421     -0.67266037688167
  N   7.01934002823359      1.95243259307884     -0.14664056761498
  C   6.79201294897759      0.70815233964295      0.32984845058062
  Cl  8.14735830501506     -0.34986549210098      0.30322640876231
  C   5.56887747673332      0.35831878986820      0.78289396889464
  H   0.74156522175678     -0.59043972489695     -0.78955455887263
  H   0.80407593070649      1.13033065987955     -0.43415443294894
  H   0.62573972028768     -0.05066111907930      0.88489350995099
  H   3.06551388537764      0.35010500772009     -0.91026650035529
  H   2.35707468960861     -1.97318641220368     -0.20304522681799
  H   4.78370582102045     -1.69919525751254     -0.62769934833376
  H   4.32054847469032     -2.82144818722629      0.66817680553036
  H   6.02599688297954     -1.55290760602488      1.59766485344697
  H   5.03297297692002     -0.49112869953507      3.32103138278271
  H   3.43650815264910      0.97980158324926      3.28633447859183
  H   2.34140592428414     -0.26645305932944      2.68002160501904
  H   1.43907174854701      2.01724014641172      1.46359457977781
  H   2.62403531107683      2.90331533983266      0.70609159413533
  H   7.93397108941395      2.21011014181822     -0.48950032292664
