30
Coordinates from ORCA-job 23140optt
  C   0.76088080901280      0.05739213815069     -0.04501433537105
  C   2.26712628154631     -0.10258768150621     -0.11724722909877
  N   2.82951476771995      0.77098709077663     -1.12633165700397
  C   4.07920878788819      0.86224503823843     -1.26357240168814
  S   5.16418673431826     -0.16431375989386     -0.29961324354361
  C   6.71345343630865      0.59464349807609     -0.49741563929595
  C   7.75220977890970      0.09746464501083      0.47908298627368
  O   7.36815525451296      0.07763996445978      1.76623937849217
  O   8.82718366068249     -0.28775262491542      0.14850937152434
  C   6.95769868793521      1.53762002725888     -1.41989179200211
  Cl  8.47609487068856      2.37421497281159     -1.33107722163895
  C   6.01382384437259      1.97483670107850     -2.45676444182119
  C   6.58980784848939      2.74929139290025     -3.63642787696641
  C   6.18592494446015      2.22413399729272     -5.01995714963356
  C   6.34971955223235      4.25501258529184     -3.49611107305444
  C   4.69848970325490      1.69244215968110     -2.31364908221679
  Cl  3.52683241533837      2.33151343016643     -3.40365528495703
  H   0.33948827702585     -0.61026502671781      0.70655094055997
  H   0.31133967061906     -0.17268399917066     -1.01021425271460
  H   0.50185120245511      1.08351974335118      0.21390722568641
  H   2.52418822595613     -1.14287355769613     -0.35818456012410
  H   2.72447974984380      0.10919362554199      0.85911650183196
  H   6.47765229678550      0.43710908228201      1.87107671709322
  H   7.66436896859438      2.59805659824541     -3.57927020127126
  H   5.22837415800493      2.60896761596538     -5.35744121895296
  H   6.14505651030378      1.13432983404936     -5.03751009587592
  H   6.94366841271783      2.54188554119870     -5.73738969668583
  H   5.28630433393841      4.48900888052711     -3.53340181584561
  H   6.84368101532049      4.77984428156210     -4.31502643356146
  H   6.75623580076378      4.63012380598308     -2.55631641813800
