20
Coordinates from ORCA-job 23154optt
  Cl  1.18374298661759     -0.24220441717016      0.00853069363378
  C   2.90053712730498     -0.04204331963247      0.05684397257916
  C   3.44903605833176      1.24667743900472      0.05233580975503
  C   2.65364486161306      2.47889984131224      0.01412571057159
  O   3.15461749873661      3.58168027701228      0.01680458108097
  C   4.85492287617817      1.32132615827036      0.08835478876444
  C   5.63319847321364      0.15443681278622      0.13187522904740
  C   5.05097333413764     -1.09900125971128      0.13723170144366
  C   3.66858358598470     -1.20188051871321      0.09848691870157
  C   7.04401411499781      0.54280718916487      0.16766286264927
  O   8.03455418492313     -0.12624209890826      0.19791794339832
  C   7.03122155468723      2.10998459285470      0.12716038742880
  N   5.62340927386859      2.43512280495829      0.07796526586099
  C   7.71216099076482      2.68211937049472      1.28944713474323
  N   8.23951295847373      3.14452661232176      2.19423281858581
  H   1.56171875107243      2.36300446740671     -0.01801150037451
  H   5.67540892990810     -1.98315651871542      0.17035112353087
  H   3.17523629683196     -2.16238772007919      0.09961206016997
  H   7.56139069073183      2.42298172373870     -0.77660500722978
  H   5.22811545162218      3.36234856360439      0.09867750565941
