38
Coordinates from ORCA-job 23155optt
  C   2.82826339598325      0.13289252411486     -2.17548832564444
  C   3.69567586741611      0.03156102882628     -0.92735454018871
  C   4.04566155188746      1.40279045390912     -0.39308598504818
  O   4.86561131959984      1.22228850516629      0.75803568953950
  C   5.31186072207052      2.32807571610844      1.38235229570354
  N   4.93795310731447      3.51152882569171      0.94047497512238
  C   5.38155776617146      4.59117732391756      1.59883045483271
  C   4.87703772716801      5.91913278191491      1.11756507973936
  C   6.22969942799210      4.48762614379044      2.68849334580898
  Cl  6.57166084400044      5.92988914815644      3.59603318074635
  C   6.69480411241829      3.22320316421884      3.13097367031210
  C   6.17443280595952      2.12232305642597      2.45486882411311
  N   7.57083650298147      3.08973835859055      4.18703538138059
  C   8.74235244274623      3.95364360676731      4.27940280624645
  C   7.67302750857685      1.80394699899685      4.87981845293124
  C   8.68767502956763      0.84403845859673      4.25183065463557
  C   7.98576625151332      2.03106188803699      6.35509555727121
  H   2.57028086172006     -0.85469437139715     -2.55635100642685
  H   3.34557293868765      0.67349395036523     -2.97025451474889
  H   1.89799055630681      0.66307485663809     -1.96400980055130
  H   4.61878148053869     -0.50832137433991     -1.14833540313731
  H   3.17683304014544     -0.52985993981137     -0.14747804670589
  H   3.14973880998105      1.96603294550263     -0.12077283447987
  H   4.58746272892204      1.99329598836062     -1.13645944545152
  H   4.31314833678255      5.76932569828157      0.20119337006596
  H   5.69778303322010      6.61431737642187      0.93816405294599
  H   4.22896384722828      6.37799936378281      1.86698932790745
  H   6.44990441239058      1.10965280654070      2.70041275932236
  H   8.83896869144966      4.55428225270896      3.37953019748952
  H   9.64150102432178      3.33983230223535      4.35990953127503
  H   8.69898850337757      4.62319017527163      5.13961782076326
  H   6.68125743644422      1.35400650914304      4.82155451246078
  H   9.71113423783871      1.17496286571236      4.43588339184299
  H   8.54974720138483      0.75705715804252      3.17446346716965
  H   8.58250688571851     -0.14767168606666      4.69421837404442
  H   8.98461034249501      2.45010988467447      6.48892141308756
  H   7.95118763802720      1.08161526289341      6.89037443063408
  H   7.26176160965219      2.71237999181048      6.80154688499080
