35
Coordinates from ORCA-job 23150optt
  C   2.97418885176521     -0.49091478334742      0.70102429388223
  C   2.68177973682724     -0.54063430659360     -0.79330570522815
  C   1.18813282195562     -0.47607002055439     -1.07112576861763
  N   3.30581255293002      0.58217708668976     -1.51581968815508
  C   4.58221988211143      1.05439439683702     -1.27913159194692
  C   4.83810909929221      2.43025600386135     -1.16861795473635
  C   6.14843129386515      2.87365815613567     -1.03899565919550
  C   6.21261301567239      4.37581408121792     -1.01753907774216
  C   4.76555041429031      4.76188549406403     -0.70141654551361
  C   3.87338868555222      3.60936238596448     -1.23473101206305
  C   3.47170296387164      3.87929808329097     -2.69072818396975
  C   2.62439465408836      3.50020707185350     -0.35422035947652
  N   7.21908317385898      2.09436852214684     -0.95581137170113
  C   6.98393681911097      0.79018056045491     -1.02642384827779
  C   5.72313712616732      0.23798153987882     -1.19635105109775
  Cl  5.63896571426650     -1.48450527370536     -1.38663633097235
  H   2.50247417396955     -1.33369610274511      1.20790210791699
  H   2.58444501055946      0.43528899742452      1.13106821308150
  H   4.04635320556381     -0.53621859865407      0.89465835179005
  H   3.06450342378983     -1.47416590141419     -1.20091775040174
  H   0.76075612402968      0.44541318017192     -0.66493157061474
  H   0.67912596149186     -1.31568078496546     -0.59937345400980
  H   0.99044149381166     -0.50953372206671     -2.14303512838035
  H   2.65225322877492      1.34150113456980     -1.61953978722557
  H   6.52937702259767      4.73803330466855     -1.99977034212350
  H   6.93385860322464      4.74345067307721     -0.28948306647775
  H   4.46312016695060      5.72153859693805     -1.12287388192055
  H   4.64218787256364      4.82138815061076      0.38251170091363
  H   4.35166044832843      4.08885231000245     -3.30142660155361
  H   2.80153476455902      4.74013345455614     -2.74567918153266
  H   2.96074399448511      3.02105255801258     -3.13258137342957
  H   2.87314686047132      3.09935139905449      0.62987356760708
  H   1.83195633827192      2.88637725344392     -0.78693568409817
  H   2.20121363630718      4.49808586728315     -0.21614021701087
  H   7.83840086462408      0.12536923183746     -0.96649604771882
