31
Coordinates from ORCA-job 23157optt
  C   1.36666794082750     -0.33178201669065     -0.43598479930826
  C   2.67465082655198      0.25373795031810      0.07847124537785
  C   2.43346645920175      1.65676342630792      0.62382392683670
  O   3.63633271781041      2.26694686558361      1.06765993136838
  N   3.19957498193079     -0.61634951399825      1.11172096511867
  C   4.45337945235798     -0.73274810632207      1.29346922452186
  N   5.43162967876934      0.04271232198302      0.65682667189073
  N   6.70432155240805     -0.31405338695624      0.54981617566518
  C   7.11182395052867     -1.29853647738394      1.25137107109484
  Cl  8.71011971573836     -1.86027577949752      0.92134353708050
  C   6.21113247187978     -1.94528865868152      2.22075254649753
  N   4.95256720293989     -1.65075364454107      2.19324069498827
  N   6.66409659806228     -2.86509611822677      3.11709654088663
  C   8.00244335020079     -2.82743516943820      3.70456585844615
  C   5.68983831302568     -3.64196541341348      3.84392409715691
  C   6.05254062239537     -5.10278073868338      3.93238476025215
  O   6.99123459865760     -5.61195352052936      3.39149450958023
  H   0.93213048091276      0.30082538735056     -1.21195847074306
  H   0.65638595499098     -0.42538268748377      0.38654439049298
  H   1.53511384690817     -1.32543798918688     -0.84843898419038
  H   3.37185661064587      0.34566510921686     -0.76853542255524
  H   1.70232248862163      1.60536667923217      1.43646255224349
  H   2.03195497127974      2.29694885872806     -0.16280147604876
  H   3.84208107398977      1.91752216182288      1.94095442937268
  H   5.16942442486349      0.88678279903784      0.16890700274323
  H   8.43980045392914     -1.83761620315460      3.60358368006461
  H   8.66256251008184     -3.57122041377935      3.26492147315729
  H   7.90145938963988     -3.03856084227712      4.77035727535732
  H   4.71718101263506     -3.56393595382709      3.35510256842500
  H   5.54306578141094     -3.26405500515593      4.86552853793795
  H   5.35784056680442     -5.70104392035381      4.55339548628853
