20
Coordinates from ORCA-job 23164optt
  C   0.99514563084395      0.03560576010547      0.27068034343465
  C   2.48016187550592     -0.09591266313995      0.12451732423812
  C   3.18351431061711     -1.23451644581708     -0.04530322262419
  C   2.60461000917085     -2.57578617892152     -0.26730050253653
  Cl  1.12108037088697     -2.68593750585823     -1.16154230563180
  N   3.11749039593235     -3.68843885743250      0.04647682745604
  S   4.60368312483176     -3.79057709037995      0.78011374326037
  C   5.36482104073612     -2.27483767126949      0.37903284364936
  O   6.68808972502541     -2.25041757224160      0.58683737476578
  C   4.65598318899850     -1.20448301037176     -0.04564405323154
  C   5.21877608499337      0.10349081074560     -0.36477291348837
  Cl  6.83417875811010      0.19839202806675     -0.98931776773605
  N   4.57766377485179      1.18686339303060     -0.26767867462862
  C   3.24972043922377      1.17016995758796      0.20798976523494
  N   2.70086085885275      2.23061336400036      0.63865410923194
  H   0.54307762576862     -0.84988815102995      0.70696195578772
  H   0.52515221343393      0.22125109139550     -0.69747574731851
  H   0.79403032696410      0.89754432226472      0.90232642774251
  H   7.05809620574832     -3.14212286204600      0.61244448016828
  H   3.36786403950428      2.99998728131106      0.58699999222591
