31
Coordinates from ORCA-job 23175optt
  C   3.80794089982970      0.86746175177971      0.41828439236422
  C   2.59940639612552      0.00410027929601      0.07918969942737
  C   1.41304066173259      0.84098330401527     -0.36400392210362
  O   1.45404718105260      2.02921695960139     -0.52191087841066
  C   2.87529785937786     -1.01476602745666     -1.01517304855827
  C   3.47511475409444     -0.56263841216662     -2.18498071842529
  C   3.82621600234617     -1.43084257452785     -3.21205592927579
  C   4.43537498926461     -0.95443639552811     -4.40902936438473
  C   4.94509629926411     -0.53022221040013     -5.40687313287866
  C   3.54561561950681     -2.78217790239323     -2.98710823998061
  Cl  4.00303345652750     -3.95850230512319     -4.16781757144955
  N   2.93700388055886     -3.22380897859836     -1.91702280810659
  C   2.57377440851784     -2.38231759331270     -0.94881591637291
  C   1.86294636681980     -3.04099113068433      0.23238605039627
  C   1.23508215846976     -4.37054120928446     -0.16355529034514
  C   2.86688507144572     -3.25080278508157      1.36881703604133
  O   0.82729696514121     -2.14053302642600      0.63780403050281
  H   3.56937693980474      1.52411618167176      1.25411288174563
  H   4.09605211371145      1.50565788145398     -0.41539926201969
  H   4.65728196284455      0.24117789301455      0.69213408480914
  H   2.26006557666384     -0.52453944505376      0.96708423806465
  H   0.48884199885700      0.26537250308874     -0.55195089227437
  H   3.68494250399748      0.49226697055284     -2.31230997554355
  H   5.39293176192676     -0.16142181169134     -6.29869955974930
  H   1.98928225245063     -5.08907472807861     -0.47279805972870
  H   0.53382591988733     -4.23072371554067     -0.98539019611087
  H   0.69927841590459     -4.77503394258447      0.69923292027050
  H   3.66442152041983     -3.91902234992069      1.04243609170975
  H   2.36577325265472     -3.70358658199784      2.22680110582490
  H   3.31142832949145     -2.30671721576486      1.68356340161243
  H   0.22632448131048     -2.61765338285872      1.21904883294929
