22
Coordinates from ORCA-job 23170optt
  Cl  1.43378476501103     -1.48140895887068      0.67184343445055
  C   2.93464072861695     -0.71999706236127      0.31069214183104
  N   2.92883075346577      0.54228985931778      0.16771976614644
  C   4.07016871804941      1.27204178063840     -0.12618123079702
  N   4.11848307625700      2.50982638842622     -0.34121546587678
  S   5.65566165027962      0.43865359528583     -0.20237657532453
  C   5.15818008680862     -1.19000823208240      0.02898596049914
  N   3.96943819777736     -1.62475310644030      0.22996351540829
  C   6.27101602876382     -2.20957717852885      0.03528971030920
  C   6.39774255832900     -2.89605446975686      1.41002305724430
  C   6.10430851936831     -2.08658022689176      2.58025993919372
  C   5.85789044344459     -1.42847085691950      3.54843466480026
  C   5.48628112482908     -4.11058198852511      1.24787658739770
  N   4.89730893144933     -4.82152272651869      2.07823774276653
  O   5.41905612051318     -4.40734721681016     -0.09466139335218
  C   5.86290809728442     -3.38048943978726     -0.86429701089240
  O   5.90680198687742     -3.42247053559252     -2.04537870738647
  H   3.18309641736413      2.91065347235613     -0.27062824826865
  H   7.20241167640489     -1.77626666282472     -0.32185915347624
  H   7.41641228425072     -3.28846389655228      1.49262927553619
  H   5.63921063657623     -0.83821884859978      4.40718977761521
  H   5.04236719827905     -4.46825368896220      3.02245221217570
