34
Coordinates from ORCA-job 23189optt
  C   1.24462049650728      0.81670284353005      0.34552993720260
  C   2.64035713993883      0.31663605317722     -0.01733473516984
  C   3.13563394236931     -0.90387962748565      0.78268212119351
  C   2.77023613912603     -0.77836830168522      2.26062734004396
  C   2.47764998396515     -2.21190194495012      0.28672443123980
  N   2.83554614441439     -2.66514408568214     -1.06535667512524
  C   3.93246421696046     -3.51463287297071     -1.20224763099907
  N   4.79733171512927     -3.83385667280765     -0.32219894369563
  C   4.09996965078720     -4.10102155578335     -2.56027892419919
  N   5.14638040416682     -4.93058604388050     -2.68068634959973
  N   3.33092715364950     -3.84025628505414     -3.56307031206525
  C   2.26097322739105     -3.02992889918899     -3.35161950085920
  Cl  1.25402809876991     -2.76860603288969     -4.72691127643834
  C   1.98135421489151     -2.46542076790982     -2.16094746883575
  Cl  0.56986219145667     -1.51831476696694     -1.93799296052198
  N   4.58965160846583     -1.07343028324070      0.67152585592426
  C   5.42667058648154     -0.08805821011714      1.33916148315243
  H   0.89091618648425      1.53460730622067     -0.39452313113474
  H   1.24558430064653      1.31249106977270      1.31664002827654
  H   0.51617124416807      0.00659529892299      0.38704672905996
  H   3.34916567031606      1.13208478505398      0.14058096126603
  H   2.69271492642033      0.07295950570252     -1.08239726383699
  H   1.69312055523052     -0.86851282404089      2.40060922338299
  H   3.07749892247192      0.18894067603591      2.65919907902392
  H   3.26516801786256     -1.56359859861169      2.83456390507452
  H   1.39697474966555     -2.10740590987120      0.33144798224766
  H   2.75781110184671     -3.01768948823011      0.96807785855351
  H   4.71327867362859     -3.31183462786284      0.54412291227902
  H   5.72901764066941     -5.07030326754640     -1.87115647411777
  H   5.33474385710678     -5.36344269643659     -3.56650601497220
  H   4.84440230702923     -1.12601760735223     -0.30972803783172
  H   5.36047297535649     -0.21385970003189      2.41935186248419
  H   5.18677317697136      0.95599946083501      1.10321358080095
  H   6.46152877965474     -0.26794592865443      1.05185040819680
