29
Coordinates from ORCA-job 2318optt
  Br  2.03005522525489      0.16981583744703     -1.22472908386760
  C   3.85771374847239     -0.15011179390132     -0.93547484800777
  C   4.63846142908375      0.72938306793649     -0.30735829809175
  C   4.44829439912378      2.05432475697493      0.32457091407854
  C   4.72575548862430      1.97234049660485      1.84106938389149
  C   5.65691215385463      3.15807256185387      1.83997513581686
  C   4.73871034709491      4.20145755040506      1.09661231398035
  C   3.65578133457628      3.36594498634316      0.26849285628732
  C   3.44925935560858      3.89406373649156     -1.07188086239064
  C   3.31189560259565      4.32530008182666     -2.18116380772684
  C   6.93219880397016      2.64565112497695      1.06954271859790
  N   6.92641024138839      1.23145768469370      0.54809003399664
  C   6.05739800255611      0.38821438821658     -0.13013735311692
  C   6.49258649683089     -0.81448759201601     -0.61001624945905
  C   5.61677022407970     -1.73765186655987     -1.26720617783911
  O   5.88278037631388     -2.81724326734683     -1.70762535977832
  O   4.27277612304160     -1.31649934622989     -1.41548003973229
  H   5.32489707231715      2.49276616056519     -0.13751727873779
  H   5.17075753133225      1.04103848543107      2.17635410309096
  H   3.80743725488607      2.14672547112048      2.40350714971947
  H   5.95365542997745      3.54101395786469      2.81598880668363
  H   5.30052583750746      4.83701406983882      0.41126296166083
  H   4.25096638361059      4.84624273005681      1.82633657688095
  H   2.70290856560701      3.31919158910371      0.79692710960572
  H   3.17965001758600      4.70601545155569     -3.16571661489835
  H   7.78199977334660      2.65871363506150      1.75148951863371
  H   7.17502306276187      3.32989299187003      0.25143641446049
  H   7.84911082863511      0.83158081669003      0.60307593095547
  H   7.51930888996238     -1.13822776687498     -0.51442595469391
