28
Coordinates from ORCA-job 23209optt
  Cl  4.20667112588411     -0.44348687170397      2.97061839862533
  C   5.34956045384895      0.05132503584505      1.78051519706512
  C   4.96609197281220      0.81065125253068      0.70357639214424
  C   6.02063213690240      1.30733060983711     -0.06802865317342
  N   7.17924098661956      0.63678879123050     -0.13307732372274
  N   7.52444144951478     -0.09041793401731      0.90330365991162
  C   6.71802650364848     -0.18346310963243      1.95940453906071
  C   7.39677568864951     -0.01476321973560      3.28816077354860
  O   7.36269489286089      1.39489252153438      3.53688719549032
  C   8.32891779042969      2.18327378338383      2.83633530938871
  C   7.90087568667959      3.66092031426562      2.82434896784843
  C   7.41318855381373      4.23636910021968      1.47876058391011
  C   6.20750569929271      3.48542590136306      0.95401965819658
  C   5.24147358183896      3.85670722398090     -0.12855107808581
  C   6.18909707581132      2.73169976527413     -0.38811410093740
  H   3.94974529224264      1.16483200120264      0.59248362119466
  H   8.42204615926608     -0.38801642869477      3.23902589636160
  H   6.86206675435177     -0.48086435099968      4.11200143244427
  H   8.46178199213564      1.81790104915493      1.81607680960900
  H   9.29047039852709      2.07149113979720      3.34778242101289
  H   8.73958394256998      4.27097160993915      3.16369328027897
  H   7.11266665643452      3.77815680828108      3.57204763979041
  H   8.22479424279870      4.20701987863960      0.74682763529579
  H   7.16888185046667      5.29081687017231      1.63333645208687
  H   5.72689452323292      2.91209475043067      1.73845501122458
  H   5.42761644840990      4.75056428536646     -0.70897975368398
  H   4.19437019986558      3.65071913244162      0.04924977211324
  H   7.02788794109155      2.93806008989311     -1.04015973699871
