23
Coordinates from ORCA-job 2320optt
  Br  1.18613792897692      2.64241350757007      0.67244639930982
  C   2.64518659163226      1.52685489297972      0.34396680590868
  C   3.49964248252041      1.10266071182797      1.27476424606146
  C   3.80745216403120      1.23201549634057      2.74944356705302
  C   3.17843749815626      0.17710820975786      3.61420186342320
  C   4.00002579854394     -0.83874505031631      3.84758343124777
  C   5.36478999705213     -0.67149183473747      3.23089976790612
  C   5.21446203721975      0.60418865024883      2.39291399219667
  C   6.34201523870508      1.51640958440798      2.39111229029399
  C   7.25634994012601      2.28788246693475      2.39333199166435
  N   4.64110821602364      0.37257408107310      1.04323427226587
  N   5.28392660508377      0.24485070775964     -0.11271676393863
  C   4.61691882779022      0.48561678716388     -1.17408516770493
  S   2.88257776883252      0.87782238175317     -1.26567813063215
  O   2.70455548704414      1.89691704487518     -2.25713585687655
  O   2.15232626359114     -0.35082218231500     -1.37958586476640
  H   3.79611219535133      2.24786649658435      3.13735001976376
  H   2.16077222517664      0.25671372183549      3.96997327252335
  H   3.73845514272320     -1.71121709158197      4.43123941814442
  H   5.65252796873143     -1.51125762017891      2.59564369599287
  H   6.13918622157701     -0.55127438250375      3.99064147830659
  H   8.07276915855516      2.97067252080234      2.39170748572540
  H   5.11026424255576      0.42924089971852     -2.13725221386871
