22
Coordinates from ORCA-job 23211optt
  Cl  5.07063499770125      2.85187336300716      0.01324530093696
  C   4.47171680756744      1.23305072262564      0.09480750052376
  N   3.21916773827428      1.06665191198888      0.25325581920319
  C   2.72645819870952     -0.22955431391684      0.32501642657238
  N   1.52689813096937     -0.56596746274736      0.47022646852900
  O   3.63238297115758     -1.28081077551614      0.22980673387685
  C   4.94354661059114     -1.06487863113870      0.06280101903842
  C   5.44277663165812      0.18514028801483     -0.01685186162824
  C   5.69086043804976     -2.31119199545995      0.00591829292379
  C   7.02844898861153     -2.48548457059836     -0.32740130352819
  N   7.30831920476171     -3.81347878205357     -0.24243666819624
  C   6.18815656841724     -4.50110853041035      0.13287370331490
  C   5.16619608121678     -3.58974218269321      0.29205402442793
  C   6.20339393785029     -5.90833372156349      0.29513531485007
  C   6.21929607618905     -7.09858934621353      0.43232759290046
  C   8.01040242270052     -1.54578099989531     -0.72498157784324
  N   8.80286281895998     -0.77967241961400     -1.04773066825840
  H   0.95443408878671      0.27101860050666      0.53090707101448
  H   6.49148648928490      0.39511855102679     -0.14013886391581
  H   8.20363931054958     -4.23181800239118     -0.44008694486599
  H   4.15345702894614     -3.81349630949427      0.57902597494769
  H   6.22646445904703     -8.15594539346367      0.55422664517623
