29
Coordinates from ORCA-job 23210optt
  C   1.00851969472782     -0.55312935147097      1.46865275190056
  C   2.30152831422774     -0.34128572338299      0.67702065349369
  C   2.87718666187201      1.03182165799843      0.91706556609442
  C   2.61818235313963      2.07507261602200      0.09086843497093
  C   1.69243516373881      1.87901164881447     -1.09774464984899
  C   2.42425908954080      1.46151427760356     -2.29337084469483
  C   3.05106767436941      1.11069714793082     -3.25611155517451
  C   3.77757363996529      0.67837263739880     -4.42358440515216
  C   5.12880961192880      0.08281630278911     -4.25440501912930
  N   4.00492274099228     -0.75342994103221     -4.64220425331574
  C   3.21184502908973      3.39079091834962      0.27213551955904
  Cl  2.94031783844410      4.60486014516719     -0.94556484742531
  C   3.97573934983596      3.73955728051395      1.31183544331054
  S   4.40089097093422      2.68132863182753      2.59624597541673
  C   3.70376871634997      1.12291371299539      2.13443108121014
  N   3.89287083516217      0.09962106065990      2.86746448947340
  H   0.62057582211406     -1.55947852694640      1.31080736895545
  H   0.23875273566438      0.16067061829883      1.16935923298686
  H   1.19969010164202     -0.42344418244243      2.53335988620756
  H   2.13784853088726     -0.50099288432924     -0.38760984589871
  H   3.03707350603532     -1.07216609032106      1.00796347322571
  H   1.16484392483481      2.80818072214628     -1.31001116750642
  H   0.93376167895288      1.13687385433320     -0.85419654719340
  H   3.56625545777265      1.23004663954687     -5.33059482464959
  H   5.50606590682682      0.01171543085374     -3.24257281629827
  H   5.87133101607058      0.23954127661492     -5.02554833116355
  H   3.65779938411030     -1.27518836065396     -3.84413649152003
  H   4.38643552539653      4.73577545964846      1.40132200304429
  H   4.47464872537361      0.29193302106619      3.68012371912150
