19
Coordinates from ORCA-job 23218optt
  Cl  1.00905081588346      0.03391832586325     -0.04107538220485
  C   2.72184341562597      0.05791881364353     -0.03871668514896
  N   3.35305608047679      1.16581064818138     -0.03669634517060
  C   4.71429929005577      1.19028220474484     -0.03470163076969
  C   5.43900644516668      0.02161499254311     -0.03469875639603
  N   6.79637093888361      0.02349116077364     -0.03252299904405
  C   7.58274111421174      1.19348954690197     -0.03001985184268
  N   8.85299258534565      1.20576382275028     -0.02781204241116
  C   6.81104474469923      2.42776472969420     -0.03009549646676
  C   5.46137691469221      2.42466936260617     -0.03234340555199
  C   4.74583755367963      3.67073578414262     -0.03233039621451
  N   4.20773524904336      4.68246999554987     -0.03229487895886
  N   4.76928371692669     -1.15811732634831     -0.03682548005982
  C   3.37561455997757     -1.27062387105223     -0.03901646495117
  O   2.84235377756488     -2.34794320776267     -0.04089191585153
  H   7.28940300863473     -0.85779103463910     -0.03265730115721
  H   9.26864078407081      0.27679371648998     -0.02797525762924
  H   7.38137060228899      3.34432123074015     -0.02836657746510
  H   5.25997840277219     -2.04356889482267     -0.03695913270579
