26
Coordinates from ORCA-job 2322optt
  Br  1.26325935016802      0.34902623767746     -1.66817299473535
  C   2.68310308092243      0.13252236289368     -0.45011925240880
  C   2.84964262538307     -1.06514692265205      0.12953099366124
  C   2.09972507342403     -2.36647398068797      0.02494198608238
  C   2.95758953449959     -3.30341124804428     -0.85773775741982
  C   4.21785545033252     -3.56178843140047      0.01528041175157
  C   3.93449523789413     -2.77035256287975      1.32079276274240
  C   2.39429379003507     -2.93010820668444      1.44363657725141
  C   1.96786069189677     -4.31191774962881      1.63233588869133
  N   1.65143088230926     -5.40604295474896      1.75973534561116
  C   4.00340166667988     -1.31457253229533      0.94984276245392
  C   4.92180850796107     -0.36770326045217      1.19571112230145
  C   4.73846598601926      0.96628287060956      0.66118526470233
  O   5.46731338694991      1.90046009815927      0.90504733690555
  N   3.59046472914531      1.15695370763943     -0.19988231879945
  C   3.50039133243845      2.47263684762446     -0.75147311435174
  O   2.53554512567708      2.92552327262538     -1.28080883398233
  H   1.05399041646868     -2.28886018430364     -0.25493424045755
  H   3.18829889042402     -2.83512481883100     -1.81254308591170
  H   2.42218240258817     -4.23169124599922     -1.05327358388358
  H   5.13801958217108     -3.22057891833382     -0.45470157494796
  H   4.32387781109230     -4.62106367639332      0.24543010022874
  H   4.52757883912094     -3.06916883582318      2.18028515719972
  H   1.97126876083664     -2.30924929751301      2.23325421799190
  H   5.80380398147073     -0.51738543525289      1.80172930031125
  H   4.44133286409149      3.00623486469512     -0.60609247098808
