33
Coordinates from ORCA-job 23221optt
  C   2.78598734016938      1.32400754935965      0.75592067847045
  C   2.53684780948263     -0.00791900735209      0.05189180450088
  C   3.03422403811848     -1.15783096542214      0.92660150902824
  C   1.03468602223558     -0.17610674523231     -0.22455609590168
  N   0.24335918202692     -0.21534113740139      1.00195890960217
  C   3.23755063629073     -0.04299022486616     -1.32353506643088
  C   4.72772600867009      0.04687419506609     -1.27562779358426
  N   5.45664420127959     -1.07603171358443     -1.38280967234904
  N   6.72022635816081     -0.67085436830264     -1.28816564047139
  C   6.83199059490155      0.70491858433982     -1.12453556666911
  C   5.52819478763157      1.17965620119120     -1.11639084449953
  N   8.03503317728013      1.29704584870392     -1.01803866754158
  C   9.08652468301293      0.53603974475703     -1.06783418389889
  C   9.05834518885428     -0.88078775329748     -1.24108924830348
  N   10.24108886537632     -1.61005899919912     -1.22075919335482
  C   7.82806221255663     -1.46194657131228     -1.35262368733504
  Cl  7.60375889348604     -3.13540684062828     -1.56898780582002
  H   2.18559457926524      1.38015099313323      1.66341729193540
  H   2.50816288433329      2.16265134525016      0.11130070581964
  H   3.83724361969477      1.43413495476495      1.02475130778289
  H   2.55543491773416     -1.12740613679553      1.90689293832266
  H   4.11187456158365     -1.08886690070232      1.07967251119186
  H   2.82842749628689     -2.12543021319459      0.46082907882615
  H   0.89855337022565     -1.06938033164523     -0.84994608095579
  H   0.69455764265824      0.68104452611523     -0.81231763636505
  H   0.33776894533373     -1.11134678907175      1.46419767794423
  H   -0.73973523517857     -0.09081425838071      0.79861095660348
  H   2.85076942894308      0.78160016729218     -1.92939488165977
  H   2.97815969574028     -0.97538443458232     -1.83047416736834
  H   5.22459964409112      2.20624370227778     -1.01292338432193
  H   10.05600208442920      1.01722428489517     -0.96785809539383
  H   11.04375602051511     -1.10880482246109     -1.56976842442645
  H   10.17358034481039     -2.53788388371454     -1.61240923337716
