26
Coordinates from ORCA-job 23222optt
  C   2.45910146909367     -1.96987684354830      0.33398686593747
  C   2.70617528661154     -0.47395798295009      0.07679023987855
  C   3.78686535518916      0.01592408195644      0.93539187436178
  N   4.66154921197414      0.37438107518356      1.58338903278762
  C   3.00335512312880     -0.25018856961536     -1.40645015522224
  N   2.11461947162610     -0.04269649747871     -2.28237206502666
  N   4.33365575753963     -0.39645479681989     -1.74237182906087
  C   4.83080540018088     -0.42367239259600     -3.04480326426614
  C   5.96934641712584      0.29946005212254     -3.37799531618931
  Cl  6.71600438867791      1.33060385725522     -2.20767528591041
  C   6.54334116121068      0.19652218746777     -4.64945770253914
  N   6.07236011522900     -0.58562763366556     -5.59538952648579
  C   4.98158971234462     -1.30489921450961     -5.30011030814878
  C   4.31728997220321     -1.24321936529236     -4.05843365090141
  S   2.99772286947331     -2.35042628924812     -4.00129290552567
  C   3.34605430653870     -2.90242667740700     -5.60260144229567
  C   4.38559230791201     -2.26914526448336     -6.18085718152633
  H   2.22776543298674     -2.14288286446123      1.38342397837372
  H   3.34362303219027     -2.54703523023641      0.06802671012592
  H   1.62308047723000     -2.30456745333752     -0.27838212657588
  H   1.81072934247560      0.09883236860747      0.32180436036632
  H   1.18413329787398     -0.01164735681121     -1.87550855382534
  H   5.00710242934153     -0.13110959645066     -1.03514215040299
  H   7.42661665577509      0.78369440773685     -4.87359427984550
  H   2.72032616289883     -3.66727934091289     -6.03512760954008
  H   4.75219484316868     -2.45330466050554     -7.17924770854311
