29
Coordinates from ORCA-job 23228optt
  C   1.74213026575547     -0.15684362998763      1.08125089106439
  N   2.80986384349792     -1.01987241266557      0.63426531076473
  C   4.21902592839599     -0.84032490046386      0.94714381377914
  C   4.88626141571094      0.42550726284299      0.43089687172533
  C   5.16383643862084     -0.12504654297442     -0.74661203857785
  Cl  5.86868569590916      0.46138416459881     -2.18385514428140
  C   4.54458437707237     -1.48836533579334     -0.50617653027408
  C   5.34838365384998     -2.72592433639209     -0.55318767518828
  C   4.97641775048812     -4.02438732750055     -0.66926452855714
  C   3.74293096942661     -4.56182207610497     -1.31990739781110
  C   5.72811836505656     -4.82727632319221      0.32035541485952
  C   4.94408837452785     -5.03299391124364      1.40864591321051
  N   5.29376831787665     -4.07873043061597      2.39731475642039
  C   4.47777208767643     -3.11116789285894      2.25592610378726
  S   4.83143004454579     -1.40760172904109      2.55580869927432
  C   3.02425115844865     -1.38773513442437     -0.68297564162081
  N   2.18138380920219     -1.43863604600441     -1.61823256444172
  H   1.91126549445660      0.87728907816460      0.76222881426342
  H   1.67465726846034     -0.19846283704647      2.16751851937254
  H   0.80970458459171     -0.50917054306939      0.64512082158207
  H   5.00971871401560      1.41163324663275      0.85251389662333
  H   6.31393258124770     -2.55005967223573     -0.08304401765030
  H   2.97714419927197     -3.80563241002268     -1.47027994173253
  H   3.32095386437353     -5.38795990912408     -0.74746971999432
  H   4.01838204950040     -4.96716545211661     -2.29604635077244
  H   6.72082429665822     -4.45606809422893      0.55109396459277
  H   3.89853141031102     -5.32119702386960      1.32790754890732
  H   3.54403691921008     -3.21203111387632      1.69227925296414
  H   2.61791612184121     -1.72733866738625     -2.49021904228921
