30
Coordinates from ORCA-job 23220optt
  Cl  2.29435645967020      0.95826028007407      3.09636586751647
  C   3.52985480926391      0.74365962908090      1.89696801436708
  C   3.76404940984738     -0.53579612707530      1.41814792290420
  N   4.65948004131258     -0.78665910096286      0.47913402028983
  C   5.39436331348084      0.21319569047108     -0.01296721734970
  C   6.35332665445281     -0.17567241067206     -1.09978772835886
  C   7.79704888323515      0.22470085758920     -0.79460718709785
  C   8.09884901356879      1.64270751764151     -1.24108510333076
  C   7.19867396910509      2.72292170259082     -0.72630356373705
  C   6.06259016992901      2.69782352015812     -0.01719474947580
  C   5.51294891624853      4.01509030199678      0.48815940576365
  C   5.39010297281142      3.93576007190400      2.03216981180928
  C   4.03266915721692      3.23896908793135      1.78286318641398
  C   3.96803395769487      4.04274262617258      0.45815343581729
  C   4.27170022634482      1.80583896550714      1.40765032459040
  C   5.27104133410974      1.52978243471745      0.45220415973931
  H   3.19201880382340     -1.37282234849129      1.80232547171814
  H   6.04356205902258      0.29563980523650     -2.03913621577512
  H   6.26052903970277     -1.25220824310678     -1.22611028826253
  H   8.48208306861752     -0.45504977247178     -1.30358195901442
  H   7.98551517212327      0.11881249327436      0.27661399637279
  H   8.08952115770393      1.68613122315333     -2.33681267156490
  H   9.12158583414444      1.90768449331521     -0.95452950759869
  H   7.57231296737131      3.71915773890109     -0.95067202251258
  H   6.05201383774552      4.85547013641602      0.05657904024828
  H   5.24691276385521      4.92251891936283      2.47030104656772
  H   6.15590940955861      3.38455142083508      2.57668403181862
  H   3.23793805058566      3.35303448162333      2.51252096673736
  H   3.59333937524258      5.05021201122876      0.63242860856277
  H   3.45666917221108      3.58654259359854     -0.38848109715889
