33
Coordinates from ORCA-job 23232optt
  C   0.78782467578354      2.98409564067480     -0.06903854088930
  C   2.19483558226412      2.79479294635540      0.48480324784523
  C   2.81759204317961      1.47860160126018      0.03199762707854
  C   4.27815669530296      1.28359255589171      0.43805709387963
  C   4.81742150307044     -0.07281821580133     -0.04474406531722
  C   4.42740808413004     -1.24547480595164      0.81588416009799
  C   4.96467368864698     -1.45954088244560      2.01944437503531
  C   5.89935352757927     -0.51914777070266      2.64099017815497
  C   5.67638473227614      0.81820317223304      2.55845331342697
  C   4.42926813410009      1.41093121829228      1.96472061536793
  N   6.57092070619916      1.70911010970215      3.11364095311443
  C   7.67757906148118      1.26710192130244      3.77494186731153
  Cl  8.69056203688820      2.51881552878022      4.38903545492738
  C   7.94788749259241     -0.03629021907278      3.93362725395371
  C   7.05428998095945     -1.04973595679054      3.37899164907856
  N   7.21314302324940     -2.31825934336870      3.48633586984977
  H   0.33950370432881      3.91355143678985      0.28260401682154
  H   0.13885857625241      2.16115957818419      0.23661111200952
  H   0.79939216588416      3.00767572166587     -1.16026425379640
  H   2.15916130771631      2.83155010070890      1.57668248197062
  H   2.83275106774070      3.62608641541519      0.16685743261397
  H   2.75094218305852      1.41150014878000     -1.05840645590785
  H   2.22923163034367      0.64291046733879      0.42998105022977
  H   4.87344714969286      2.06812610293232     -0.04265735935365
  H   5.90982125689112     -0.01724790627779     -0.05212400824442
  H   4.49648249554011     -0.23419020257274     -1.07506377621690
  H   3.73520057608196     -1.97528421671848      0.41197250172330
  H   4.76777934235822     -2.37535243512058      2.56332039373841
  H   4.34601445117733      2.45926176419578      2.25919790021366
  H   3.58592301858010      0.88311071271897      2.42073042005968
  H   6.39092371704601      2.69831718997645      3.06847197439387
  H   8.83651409555432     -0.33710301497190      4.46976045338725
  H   8.04375229405036     -2.53304936340380      4.03418506344219
