23
Coordinates from ORCA-job 23235optt
  C   0.94175019098150      0.04899273569908     -0.36375895496539
  C   2.42821972082562     -0.07861785625537     -0.07419773917895
  C   3.25192379115327      0.95805249559250     -0.82267521705849
  O   2.92457111823043     -1.35856450574549     -0.52595039278340
  C   2.41709108271489     -2.43041813124459      0.12503711752676
  N   2.79375032388314     -2.83359703194046      1.25638327685143
  C   3.80316253776468     -2.15346787385288      1.94111060852282
  N   4.70269811350927     -2.89960944132627      2.49155199383803
  C   5.70647000772309     -2.34399364774184      3.22733878870320
  O   6.61768064344021     -2.88897666976519      3.74609314218102
  O   5.65246230086076     -0.91654383983687      3.42049520692683
  C   4.72160840876321     -0.18848104269633      2.85829684777986
  Cl  4.91955349367077      1.47055443454820      3.17232344167395
  C   3.74703901209386     -0.71573969118787      2.07383197665965
  C   2.70686092027366      0.13050964932332      1.42227995116005
  O   2.15562968467279      1.02738190157014      2.00226398364105
  H   0.77121906383527     -0.05536046428912     -1.43478771617207
  H   0.59013911012862      1.02314535234078     -0.03104215770678
  H   0.36848356829304     -0.71312414278025      0.16705707572056
  H   3.10660272314787      0.82331305065423     -1.89393612741599
  H   4.31207310950170      0.84182542734876     -0.59436705622848
  H   2.92878295150234      1.95642884770115     -0.53247746100802
  H   1.65222812302996     -2.98270955611563     -0.41587058866765
