29
Coordinates from ORCA-job 23249optt
  C   2.59479006899225     -1.69082485477856     -2.87135574475530
  C   3.55476052106349     -0.53080602590636     -2.89418002939497
  C   3.14140087272007      0.77878828953451     -3.49793624084197
  C   3.31016101153778      0.65295152134915     -2.01334331595336
  N   4.43406644994571      1.27145510008624     -1.40123522557161
  C   4.50892020362092      2.61479957147604     -1.17007366974198
  N   3.52418091963429      3.39522950505176     -1.58408354589895
  C   3.60972210069945      4.69487035451650     -1.38081970687121
  Cl  2.28651739497986      5.68304427166922     -1.95323594993369
  C   4.67031435484607      5.32607711346546     -0.76236451610660
  O   4.76460748373047      6.66631664750353     -0.57051360493981
  C   5.70963387371374      4.50674254626585     -0.32146839876429
  C   5.64326716723419      3.13998037186263     -0.49369703218405
  N   6.63227873025620      2.23386575717430     -0.09526330484673
  C   7.27510541926456      2.45678685231165      0.97946465089682
  N   8.33001752731903      1.70038448728677      1.36454199508770
  H   2.62753631280603     -2.24495199408570     -3.81082132388598
  H   1.57207936350535     -1.33709639406238     -2.73007647548965
  H   2.82535036472512     -2.38379050665436     -2.06023444099953
  H   4.59899889914570     -0.79035817889421     -3.02448702178300
  H   2.13345070684483      0.86687431881182     -3.87969661377265
  H   3.88774050071099      1.36422643822233     -4.01502884654361
  H   2.39703956559888      0.64816843654268     -1.42542248629482
  H   5.16019642534714      0.71033804861891     -0.98885289919071
  H   3.98576619734511      7.09153894797596     -0.95120027021792
  H   6.57798239288681      4.97208950446231      0.12806676808675
  H   7.03516742659115      3.27912288791802      1.65931847622111
  H   8.54943284018180      0.88064559620600      0.82280822668199
  H   8.66951490475287      1.75053138606985      2.30719054700806
