30
Coordinates from ORCA-job 2324optt
  Br  1.00609466704361     -0.47796178508022      0.67294700081338
  C   2.84858998688567     -0.29692979776005      0.30640946453543
  C   3.42809959157866      0.93340643408087      0.05831531838109
  C   2.63723649682532      2.21600958064307      0.05052754362424
  C   1.78137844231782      2.45802347052880     -1.20220736927763
  C   1.37017302501239      3.92381353637158     -1.05262468662879
  C   2.57935841788230      4.61850388739033     -0.38464383145259
  C   3.49571495457289      3.49018599217626      0.13347936991213
  C   4.73138225185697      3.34090631979385     -0.74466863907809
  N   5.47019343725758      2.16137545572002     -0.36004801512737
  C   4.83912258520935      0.95881602729298     -0.17161569072363
  N   5.62516482792537     -0.11467880443511     -0.17943613565702
  C   5.00077013503988     -1.25454868343005      0.06052388118616
  C   3.63833853694925     -1.44470252458396      0.30964531014056
  N   3.36104489105654     -2.77933382977135      0.51535228204769
  C   4.50958644255638     -3.37265721709607      0.39577481545702
  N   5.54345319026771     -2.51304947175069      0.12081680715860
  H   1.96044855256877      2.20435048850939      0.91032959134762
  H   0.93481761003540      1.77654692589997     -1.26734696965858
  H   2.39286525220497      2.31128547648192     -2.09560480172929
  H   0.49774097475304      3.98748617052482     -0.39992760514641
  H   1.09517271400350      4.38323717032067     -2.00111927529900
  H   2.25973481699623      5.27192121361703      0.42606186603412
  H   3.12089009452287      5.24468008871036     -1.09707589461048
  H   3.82973844109775      3.66467355888338      1.15727353299484
  H   5.37844243521076      4.21076821129123     -0.62652353565806
  H   4.42567678488244      3.30237050275824     -1.79952869266173
  H   6.42660374095943      2.07097722401895     -0.66365334250080
  H   4.67241835198020     -4.43435854640918      0.49624591497661
  H   6.51374835054692     -2.74311707469706     -0.00867821340003
