25
Coordinates from ORCA-job 23242optt
  Cl  3.67661852830654      1.60523890048445     -2.95920461717435
  C   3.93380279945807      0.77710011640977     -1.45297155969864
  N   3.51672181710180      1.34547306769727     -0.38844255837185
  C   3.70090480126882      0.70175729157317      0.83340711385063
  N   3.32222681501588      1.12870308461452      1.96427585521075
  N   4.36863836760598     -0.53255068520630      0.78901905210945
  C   4.79686981418183     -1.11631212590325     -0.34785923481738
  C   5.47344009602096     -2.45135235753355     -0.23618394616860
  C   4.54999839332337     -3.52741294723889      0.32494645763804
  C   3.46252209632235     -4.04942475142200     -0.56699119459342
  C   4.66560316433650     -4.91057176466629     -0.30207062871945
  C   4.53061325753538     -6.07848416617020      0.52542754407795
  N   4.43006665072065     -7.01440550007174      1.17928799038241
  C   4.29381610809742     -3.45506320963669      1.74175136529678
  C   4.09501904196961     -3.37552602261489      2.92006909919607
  C   4.59682555854791     -0.48399982271790     -1.53361392959971
  H   2.85678912807814      2.02389677656783      1.85057497783238
  H   4.46494213680490     -1.00417937301008      1.67944543481598
  H   6.35538314627582     -2.36688191412277      0.40306941301471
  H   5.80658324198657     -2.74414225284624     -1.23123592806572
  H   3.37782607106379     -3.60763905875666     -1.55056347886886
  H   2.53599836974186     -4.34416466115153     -0.09756140494641
  H   5.39702506798086     -5.01188578843298     -1.09239444760821
  H   3.91062206367940     -3.31556439902136      3.96706808679597
  H   4.92814346457554     -0.89260843682364     -2.47324946158854
