28
Coordinates from ORCA-job 23246optt
  C   1.79053340205573      0.06959572212350     -0.70897659342480
  C   3.05680789916027      0.12099354408248      0.09348334878521
  C   3.74422335211476     -1.09270458803434      0.60621838408988
  C   4.37866354758588     -0.25633738044171     -0.47970912596961
  C   5.57056022305860      0.66439250323853     -0.17586730311898
  C   6.71519233911888      0.24711048087716     -1.09031830840428
  O   5.99059579889465      0.56978745173748      1.17900616219190
  C   5.05315569453808      2.10613570918572     -0.27655221504929
  C   5.64687906465589      3.19148916540890     -0.84091484723551
  Cl  7.16826680352534      3.19987301418803     -1.63947579447741
  C   5.04666473457858      4.53657820743232     -0.80514013547822
  O   5.53425570391755      5.53209125902360     -1.29925521201043
  N   3.84585845035321      4.58814770629486     -0.13108124014709
  C   3.20573368830257      3.51727519224788      0.41988604058894
  C   3.77420019270684      2.29912013293220      0.36285224434882
  O   3.13758068035227      1.23936792048316      0.95133649294659
  H   1.79206678235339     -0.80019742159924     -1.36606446015140
  H   1.69852412410603      0.96678112654405     -1.32459971024087
  H   0.92386450540494      0.00827359918844     -0.04986756841712
  H   3.34692924528475     -2.05899466043313      0.32979179759498
  H   4.16084623172750     -1.00873114347356      1.60009844012236
  H   4.37710740562853     -0.66544058378235     -1.48201618017019
  H   6.83285770189864     -0.83551218953342     -0.99249790854454
  H   7.64322588550143      0.72975863562438     -0.80086568784063
  H   6.50505933772633      0.47409736039259     -2.13470497920164
  H   6.35133125159442     -0.31323651768803      1.31925067935182
  H   3.43286422042635      5.50821403387302     -0.08499510928453
  H   2.25315173342853      3.68607172010746      0.89897878914605
