22
Coordinates from ORCA-job 23257optt
  C   1.05939024192082     -0.09056987766442     -0.25326384503021
  C   2.57338440576051      0.01058932550041     -0.10261216050984
  C   2.97516416858333      0.14938130134316      1.37349795807354
  C   2.53707276240653      1.42052599468544      1.94079233165037
  C   2.17113520301982      2.47991683692824      2.36467340711321
  N   3.20565037834501     -1.19601580058994     -0.60577012029328
  C   3.49744401814132     -1.31940865235381     -1.84166600232006
  C   3.22857131673420     -0.30575392275645     -2.88902890323980
  N   3.57572921769104     -0.35525554838954     -4.11524626537552
  S   4.39996687451647     -1.59476029842710     -4.81603542527098
  C   4.58151125342987     -2.74359679766059     -3.52730881531895
  Cl  5.37931035725927     -4.19023523391680     -4.01476385836188
  C   4.14770083010420     -2.55134691395419     -2.27947320041590
  H   0.57483983096823      0.77397114270150      0.20041401732285
  H   0.70396369295005     -0.99602430391689      0.24124153249880
  H   0.77202097761311     -0.14456249353332     -1.30435406551595
  H   2.93252543531702      0.90949453617558     -0.61534857862962
  H   4.06065046779449      0.06847580867622      1.45241331372399
  H   2.54979314090713     -0.68617714995507      1.93425724094153
  H   1.85143558529859      3.41842434778640      2.74959938454607
  H   2.67097894693199      0.58182988500262     -2.60857587844112
  H   4.29076089430698     -3.31790218568146     -1.52844206714724
