28
Coordinates from ORCA-job 23254optt
  C   2.42967139520259      2.40142708938243     -1.07392227816145
  C   2.98038785632308      1.09960387545847     -0.52197915526764
  N   3.19208832285409      0.13817299187148     -1.58833790414773
  C   3.73959053608426     -1.11560955776732     -1.12495804761477
  C   4.29063751130617     -1.94571563003401     -2.25550388932217
  N   4.78581665546923     -1.30370599377370     -3.29936902247727
  C   5.31051436907304     -2.06450861256957     -4.26426174262585
  C   5.34770672658811     -3.43375055314667     -4.18764586111344
  Cl  6.03927968168300     -4.35505566894532     -5.46294344289629
  C   4.80248798732096     -4.05807579318117     -3.04033000669330
  N   4.84382583101953     -5.41247064093684     -2.96221120821860
  C   4.29780689929817     -6.08761905156839     -1.98689281878450
  N   3.68441281319396     -5.59207029468002     -0.89717313872342
  N   4.33658160809720     -7.44804393244141     -2.09155245565072
  N   4.27796940879277     -3.26775192727381     -2.08897197004229
  H   2.27084994153233      3.12783464332463     -0.27664368545972
  H   1.48262215639440      2.22654584804927     -1.58387081051687
  H   3.12541581666118      2.83885191119981     -1.79291473978842
  H   2.26810071941110      0.66779907504052      0.18749283052636
  H   3.90541869931356      1.29423383925397      0.04450787795964
  H   3.79500754504412      0.51647775529764     -2.31133408348790
  H   2.96796490805738     -1.69297891231977     -0.61077729258929
  H   4.56234293083839     -0.97500419417499     -0.40062062507314
  H   5.71969126194044     -1.55940036315108     -5.13199330333934
  H   3.58882455591413     -4.58288833507452     -0.85920334612716
  H   3.12493348417963     -6.19156435498943     -0.31721133196730
  H   4.93031496226084     -7.78851885344142     -2.83018095888789
  H   4.29673541614627     -8.00221435940874     -1.25319758950947
