33
Coordinates from ORCA-job 23265optt
  C   1.00010482420508      0.14666957483330      0.19451485683924
  C   2.51781086631864      0.20378800886320      0.01361369932806
  C   3.00558166286045      0.33593759051503     -1.44929138193914
  C   2.33232850020779     -0.76536268031777     -2.27336193444528
  C   2.52088455971091      1.66796070527521     -2.10910179594696
  O   2.32069727015331      2.78048320117927     -1.24651701346441
  C   4.54613978604565      0.22192425346054     -1.44934108607164
  C   5.31537300360023      1.16007764779598     -0.78597452069251
  N   4.82822369769473      2.26436299784844     -0.12044956679567
  C   6.74203623831381      0.94777697096128     -0.73029327154252
  Cl  7.73101363783517      2.07789169807439      0.13899716129680
  N   7.38009207786965     -0.02002392800396     -1.27064780343389
  N   6.64109823450115     -0.89654372297507     -1.94391814229122
  C   7.18448396004593     -1.96489655889938     -2.59582898571809
  C   6.14892969442345     -2.64749525254491     -3.17271662368651
  C   4.94446229673485     -1.98468791992504     -2.86424549525099
  C   5.24324805581020     -0.86896370936791     -2.08232468526541
  H   0.74082641929845      0.27674005416626      1.24520871444608
  H   0.59059985347019     -0.80986584372737     -0.12800924571379
  H   0.46989101126757      0.91800857287184     -0.37279168229736
  H   2.95164853617430     -0.71608832457871      0.41324660719139
  H   2.93162528006915      1.01361570477217      0.61175433939400
  H   1.25315441465113     -0.62223093272823     -2.24860761424103
  H   2.54945303369048     -1.75126643607951     -1.86727590517922
  H   2.64246521715403     -0.72707569552462     -3.31710603255809
  H   1.58763541221829      1.47189814481956     -2.64163786644721
  H   3.25489912680101      1.99455641934463     -2.84582573537218
  H   1.57627576559779      2.59956713075081     -0.66459327635400
  H   3.93770872864741      2.64035979600384     -0.41888783780789
  H   5.51494200561546      2.96154742628775      0.11354519229824
  H   8.24860174837762     -2.11635566753137     -2.57430481929106
  H   6.24105328017665     -3.54261126659744     -3.76502739252633
  H   3.98371180045935     -2.31069795902223     -3.20280085646137
