25
Coordinates from ORCA-job 23266optt
  C   0.92560607275091      0.17278055295285     -0.18821695602935
  C   2.43898440381315      0.16577658299315     -0.09649514280760
  O   2.95431966673227      1.33923044506432      0.47389083771897
  C   2.95552869883710     -1.03704885444062      0.75589743817824
  O   2.36273382561891     -0.87592722161738      2.00683199998568
  C   2.54199995005507     -2.31762072477840      0.13231310554856
  N   2.19938474847212     -3.30944805160824     -0.32624028952011
  C   4.48221358267710     -0.99793440956331      0.75410056962127
  C   5.36887519492191     -0.99323257856028      1.75464020850233
  Cl  4.92907399736500     -1.17247250355001      3.40911633454888
  C   6.83259060455483     -0.81811720081747      1.53219083087186
  N   7.73660417525962     -0.69984591726693      2.39894873475077
  N   7.18720854176553     -0.69617943681891      0.17735771980724
  S   6.33730652852435     -1.53697904716601     -0.93874107902136
  O   6.65118811235504     -1.04641480571369     -2.22296797245866
  O   6.31207978302251     -2.92260042139187     -0.64628534569943
  O   4.89820654635270     -0.93488613505069     -0.55360190597535
  H   0.62267978368345      1.02567149603023     -0.79351255080881
  H   0.47956132889621      0.26370541434292      0.80212642868501
  H   0.55422711243288     -0.73911072799542     -0.65598326079334
  H   2.87723638903828      0.08632767363857     -1.08921855886149
  H   2.54946656871832      1.45947292693392      1.34170202357730
  H   2.63343025338199     -1.57320855521568      2.61399109421661
  H   7.37105101001667     -0.73410595778771      3.34622566186624
  H   8.18244312075399     -0.60583254261333      0.00293007409652
