25
Coordinates from ORCA-job 23260optt
  C   2.74087786476835     -1.45534657234656      0.70351384676333
  C   2.47630523075007     -0.10121493578694      0.05561313610594
  C   2.95741951357915     -0.06176295865799     -1.37137064450286
  O   2.19306371537174     -0.80399785522355     -2.31518896366495
  C   2.20618747552346      0.61333766322476     -2.45976303430994
  C   2.84500222533323      1.22688263767311     -3.64346162007963
  C   3.56093212338039      0.53924428805927     -4.57556114981719
  N   3.71427164255497     -0.79603549229262     -4.68132513159001
  O   4.19284165577637      1.16646877532952     -5.59876119496891
  C   4.08824399696113      2.50343841689147     -5.72500321972903
  Cl  4.98814985141248      3.06442424256905     -7.06270987248320
  C   3.36908859040220      3.27449966299597     -4.91448026215286
  C   2.66929451668741      2.66469730984627     -3.77944298577593
  O   2.00032063953602      3.32612706907526     -3.00134483845155
  C   4.39594041016777     -0.20940884858422     -1.55128261059694
  N   5.52635560792062     -0.33075010192052     -1.69579085443826
  H   2.37331087480385     -1.46757902378222      1.72851285716879
  H   3.80911181029855     -1.67644775871198      0.72538669671037
  H   2.23739335588925     -2.24888124467462      0.15074189190215
  H   2.97471421765221      0.69842197556967      0.60716569224382
  H   1.40849310034216      0.12204677090842      0.04482144940679
  H   1.29386049758435      1.10921940798149     -2.14568165060305
  H   3.37852081906979     -1.36124362565183     -3.91684744402454
  H   4.49759013246294     -1.13112331207197     -5.21742630873801
  H   3.30871013177149      4.34098350958076     -5.06331378437426
