28
Coordinates from ORCA-job 23269optt
  C   0.94411570034472     -0.02699111876966      0.19234968692671
  C   2.46215071457350     -0.06568299332001      0.06360982158146
  C   3.11934211994970      0.55309977274697      1.29968039579982
  O   4.52247745760373      0.52989139236810      1.22858319503752
  O   2.95374267284476     -1.40311693375007     -0.10478633464086
  C   2.42884498109319     -2.40125370530373      0.73888663672062
  C   3.26736088735316     -3.66555435112712      0.61003707006457
  O   4.36379683118495     -3.55514728521833     -0.14513855954595
  O   2.96383918158901     -4.67777721454441      1.16245080137010
  C   2.88353886154619      0.70804426064362     -1.17884017199622
  N   2.64361742427372      2.01624862866632     -1.12763342639893
  C   2.97500490532121      2.75824601195868     -2.17568636928176
  C   3.55275456715891      2.24740620636722     -3.32902892402652
  C   3.78116233330537      0.88456268337013     -3.37058041360375
  Cl  4.48415124161930      0.16868099497149     -4.77549492442388
  C   3.44742031578720      0.08855051655064     -2.28622355908034
  H   0.61118148116611     -0.47132363359548      1.13124676962656
  H   0.47775335507203     -0.55641218709773     -0.63941922114970
  H   0.62197678822862      1.01253121532951      0.16733957323271
  H   2.75607233575958      0.04021868156929      2.19841435284558
  H   2.81765134967710      1.59700116365615      1.35927405367612
  H   4.80994647003496     -0.37974965720607      1.09761763254314
  H   1.40086492941128     -2.65921990919697      0.47673745603602
  H   2.44995679491888     -2.11008458993479      1.79355352199768
  H   4.39220018188718     -2.65920283297643     -0.51556764502725
  H   2.77117341862950      3.82022891431605     -2.09765317380471
  H   3.81143192351217      2.88495036507731     -4.16182887199365
  H   3.61247077615391     -0.97714439555066     -2.31189937248507
