26
Coordinates from ORCA-job 2328optt
  Br  1.40360540438128      0.87353004154274      1.69676761969616
  C   2.89362622789102      0.65265425017756      0.58354237845406
  C   3.95670883489916      1.46198686642391      0.68534928514430
  C   4.27382838100992      2.69198558793315      1.48736830077418
  C   5.81058993812065      2.57748690316431      1.55996810253754
  C   5.96878920856476      2.40918336541774      0.04487482549306
  C   5.30301748841663      3.68837718046117     -0.49311510390920
  C   4.14036800823254      3.91624906895199      0.51511278002553
  C   2.75474746027794      4.07863516459757     -0.08873399634173
  O   1.96454161825611      4.86409366635709      0.36434327684963
  C   2.42049343186889      3.24258822100534     -1.23948555885123
  C   2.16069815600024      2.52107682861302     -2.16089741449112
  N   5.01943510804280      1.30814124829871     -0.17830773811125
  C   4.94914473727567      0.39607201574024     -1.17098859029449
  N   3.95785762420714     -0.39847993024683     -1.35099504041180
  C   2.82477220179079     -0.32953608563116     -0.51773407059802
  O   1.85100144536029     -1.01029139632342     -0.72648937372251
  H   3.71616777070507      2.79280704352560      2.41176699444192
  H   6.14742348464122      1.70858922665879      2.12293950106570
  H   6.28389084907688      3.48365332293132      1.93402934039115
  H   6.95311194117667      2.17379672680775     -0.35006279800263
  H   4.95105664175966      3.55231339376879     -1.51515323649030
  H   6.00128662417060      4.52381683966880     -0.47607767150510
  H   4.30118894630295      4.81794060058482      1.10482875245397
  H   1.90785886137433      1.86418294941538     -2.96217458753542
  H   5.81278960619668      0.35214690015555     -1.83067597706239
