26
Coordinates from ORCA-job 23288optt
  C   0.85689303467844     -1.99642351957334     -0.08263680978966
  C   1.64234987059092     -0.71446355331332     -0.15019122052245
  C   2.53737346497723     -0.50307019939858     -1.13302287978748
  N   2.33540267176927     -1.20905476840091     -2.34833179130156
  C   3.40165581049446     -1.43805011871233     -3.23252680775163
  N   3.39373946534422     -2.00387036521946     -4.36132431187142
  N   4.59369636159318     -0.92492651414895     -2.72916604675012
  N   4.63285276239639      0.22357820814905     -1.98393968472870
  C   3.64526822942554      0.44609448669508     -1.22094536985558
  Cl  3.71341958491892      1.85336870037918     -0.23225627121592
  C   1.02023601180849     -1.02268764118885     -2.87954642749420
  N   0.31060322021551     -1.91148174572330     -3.40832650306272
  S   0.41670804584175      0.68155312026821     -2.73250268272650
  C   -0.93758244097710      0.35040083242455     -1.56483562677729
  N   -0.96197779058365      0.55792458738447     -0.33186184429379
  C   0.03460498946008      0.96565819747610      0.55898607791964
  C   1.21038254089502      0.36439303710783      0.76670679270831
  H   1.32234703988401     -2.77937076182368     -0.67800911639438
  H   -0.18094807665554     -1.88170757280707     -0.40341360422318
  H   0.82674178848513     -2.31452754408838      0.96093500329303
  H   2.48989766141717     -2.38497520657413     -4.61676190551584
  H   5.34436495685607     -0.96697941454104     -3.40242904932500
  H   0.75200101352858     -2.82983555864393     -3.33008092472651
  H   -1.81950293299212     -0.06742010222420     -2.04503129161124
  H   -0.29972943004119      1.74296768613448      1.23553447809160
  H   1.81420214666919      0.68390573036252      1.60497781771259
