29
Coordinates from ORCA-job 23286optt
  C   3.13318267041602     -1.04911323654422     -0.86530591618703
  C   2.38646246291104     -0.22461549216286      0.18443542002853
  C   2.83199248241148      1.21365482135619      0.21270802696517
  C   2.08805793952900      2.21691385223599     -0.27578752529215
  C   2.44789735578792      3.63351571139878     -0.31848067966397
  O   1.68259547708198      4.45951816246709     -0.77313673403919
  C   3.78823551466723      4.01097778751120      0.18833481776222
  Cl  4.18168911581856      5.67019500554656     -0.00046980739534
  C   4.68179163234527      3.15989943705133      0.73361323569001
  S   4.38760834426364      1.45761269286112      0.92427351762070
  C   5.99629267070804      3.54900900363229      1.25918959303894
  C   7.21779699229249      3.02909200504080      0.89752938624820
  N   7.62617872005373      2.11995511026544     -0.08069248156521
  N   8.14063548308593      3.70010875757737      1.65120197185724
  C   9.57378043211686      3.52543364470796      1.57841954562675
  C   7.44397728454557      4.57041042083041      2.43865881578322
  N   6.16294765089166      4.51504775626461      2.22209212713367
  H   2.76258454069895     -2.07356485920228     -0.87839568144259
  H   4.20264902387435     -1.07873662090471     -0.65480929218181
  H   2.99425411960668     -0.61889521260357     -1.85744563154404
  H   2.52713546115904     -0.66907793837543      1.17295307438161
  H   1.31602855613400     -0.23709464425381     -0.02324936370931
  H   1.11077950280967      1.99524235635174     -0.69034113715603
  H   6.87374488956265      1.90005308271323     -0.71933277406398
  H   7.99776551892564      1.25817576174383      0.30119191206541
  H   9.88425428996207      2.59934388263487      2.06392535913555
  H   10.05288586061131      4.36362542070776      2.07847512872600
  H   9.88065329935515      3.50053359413152      0.53403316296566
  H   7.94114270837397      5.20877973701674      3.15241192921177
