19
Coordinates from ORCA-job 23309optt
  Cl  1.14277399061357      0.12041796805339      0.03397519367750
  C   2.84011687196658     -0.04133137210341      0.03164614748330
  N   3.52250967079166      1.05103106167854      0.03198372003171
  O   4.88521128404844      0.97103436691379      0.03017535055980
  C   5.54796834667911     -0.19315582115052      0.02814001553202
  C   4.87745181051570     -1.35306984108073      0.02770918293487
  N   5.17174666785338     -2.68892478013545      0.02578838805304
  N   6.26303701202229     -3.46140755473293      0.02348286270994
  C   5.74043006664280     -4.67854040795017      0.02239699804089
  O   6.65891830644777     -5.68765882213640      0.02006032069048
  C   6.29390978335464     -6.98353418498014      0.01836156984312
  O   5.18389649657951     -7.40883938548136      0.01821208111648
  C   4.32373070507919     -4.72393949185217      0.02403667643144
  C   3.98800588287630     -3.38788412702607      0.02624154557400
  N   2.89807643571818     -2.53279979053625      0.02859787071693
  C   3.42905967347322     -1.34766092148406      0.02944119417850
  H   6.61884388144197     -0.05419888800953      0.02695830858404
  H   7.20385072447197     -7.59236774960047      0.01719780386511
  H   3.68646238942367     -5.58517025838606      0.02359476997682
