25
Coordinates from ORCA-job 2330optt
  Br  1.60082448513149      0.52510409737056     -2.00492450494171
  C   3.02222679539919      0.13167028185713     -0.85400489281926
  C   3.19208658960201     -1.02345884507245     -0.21642360521769
  C   2.51264914305508     -2.35946190705972     -0.12627746201964
  C   3.43980489054972     -3.36491557216562     -0.85652317922700
  C   4.68664490949550     -3.44323870484923      0.07036038516682
  C   4.35755020205956     -2.46853829569319      1.23314149442624
  C   2.82186794765312     -2.67345460672355      1.35596123086343
  C   2.41542996230220     -4.04399980836138      1.81757180336769
  O   1.69756400268639     -4.79695159099944      1.22830147905367
  C   2.97505840875378     -4.42918429616431      3.14085676323409
  N   3.43526488286864     -4.68804906457289      4.15768049194197
  C   4.36906854666853     -1.08885223401852      0.62773675256622
  N   5.24023015469952     -0.16809873994171      0.78165872496953
  C   5.04346806028653      1.01330838562386      0.06517061746271
  N   5.80331895980172      2.00831586969088      0.03912393423533
  O   3.87830812463878      1.14202177631840     -0.71346485437399
  H   1.46833561523618     -2.38857097535047     -0.42175463240596
  H   3.68484022767000     -3.00789890270398     -1.85453581156626
  H   2.95337404715357     -4.33341361195209     -0.94966147440633
  H   5.61175250580290     -3.16468457299127     -0.43045103220602
  H   4.81939001984257     -4.44969811038166      0.47043985695343
  H   4.95950010850192     -2.58119592004711      2.13007073268791
  H   2.37995495487812     -1.95173063634219      2.05066919404245
  H   6.60248645526292      1.82797598452999      0.64027798821234
