26
Coordinates from ORCA-job 23306optt
  C   1.11646143326490      0.15835478571532      0.03681882641631
  N   2.55547325843593      0.14495907766010      0.18819899258845
  C   3.17306632541608      1.12786010440327      1.09914782324060
  C   4.17556089282715      0.04715219470958      1.53756378859384
  C   3.12857592907735     -0.95290204304581      0.99347904041117
  C   3.57530434806086     -2.18688055348003      0.26353110115477
  C   4.26758171502378     -2.11702659381304     -0.95585773718728
  N   4.58302572037994     -0.90885443462295     -1.54226483870227
  C   4.68021972349836     -3.32102743275451     -1.53346206691846
  N   4.46162642198337     -4.51702552607345     -1.00914075616639
  C   3.81075622362148     -4.58942030465546      0.12552656297172
  Cl  3.53089004258144     -6.16217488251055      0.78418460458640
  C   3.34477887736619     -3.45730638865059      0.80093426387534
  C   2.64157288425110     -3.59727753007021      2.04282710171022
  N   2.07566546229526     -3.67626183499633      3.03774994034698
  H   0.81011217348191      1.05501674826004     -0.50261155832345
  H   0.60240429202991      0.13677835476767      1.00836861236540
  H   0.80395577593505     -0.71306538852561     -0.54072246545414
  H   2.49430686262001      1.40550641134850      1.91494467145319
  H   3.55261525959527      2.02901459037827      0.61846782202050
  H   4.41278041598761     -0.02881811556883      2.59398215952274
  H   5.08357162665622      0.05337384263079      0.93897134345371
  H   2.43959296577355     -1.23172438151297      1.79957109339713
  H   3.92071666406827     -0.16873409321552     -1.33336837207035
  H   4.87132773911228     -0.96061041433264     -2.50650647960467
  H   5.22405696665668     -3.30090619204505     -2.47333347368145
