24
Coordinates from ORCA-job 23318optt
  Cl  1.15389772713180     -0.12115498335348      0.27347425775561
  C   2.86202317434736     -0.02535338585283      0.17184044038374
  C   3.54373988969279      1.13286634457682      0.31386084149671
  Cl  2.62476425772770      2.57124493601138      0.59881469816188
  C   4.99182652656609      1.22208560012709      0.24835289580979
  C   5.78739859395460      0.13964192332259      0.02865730446996
  C   7.31181607362908      0.24257832263489      0.00192875065989
  C   7.86837152570779      0.65311123980359      1.29257397912212
  C   8.32901636868167      0.95458220386890      2.35503756673660
  C   7.79472739387062      1.11289738359446     -1.15902062732297
  N   8.27110645009563      0.68197500579197     -2.23672717294795
  O   7.72603447329313      2.45326158417668     -0.96429425867539
  C   6.43323727692052      3.02625909864796     -0.82035833658585
  C   5.65480388346272      2.57111250605627      0.41285186451131
  C   5.31614898340388     -1.21908567805798     -0.22902258058249
  O   6.02420265239749     -2.16146981752793     -0.49430194471282
  S   3.57554708629371     -1.55653274558414     -0.14450548460452
  H   7.67409444671754     -0.76571370026817     -0.19665267585742
  H   8.74627518145044      1.22194906423672      3.29662031113578
  H   8.33263876681454     -0.33387170414879     -2.23170596028829
  H   5.85547504036128      2.84020356430391     -1.73174615438497
  H   6.61898472560976      4.09536930129052     -0.74358118431961
  H   4.91272508915029      3.33306434159805      0.62428659122861
  H   6.33514441271941      2.53597959475149      1.26561687881029
