24
Coordinates from ORCA-job 23320optt
  Cl  1.24590828450047      0.67461279421330     -1.46105897230505
  C   2.78606335137859      0.21950552706291     -0.86483127382037
  N   3.11877134261345     -0.98360544294189     -0.73221082971043
  C   4.40411868953439     -1.28733568095155     -0.21210950365062
  O   4.72303760977798     -2.42472036809043      0.00532704586383
  C   5.27574959360747     -0.13023310990214      0.04711564743574
  C   4.78282623500951      1.09845021639365     -0.12986025597825
  C   5.47359984142203      2.39668166143316      0.14593906869394
  N   6.86252512561742      2.21486914820237      0.55736247405796
  C   7.44184521424165      0.99001716583567      0.28889699687746
  N   8.58469331600023      0.82365150185635     -0.23383712523676
  C   8.81426180187241     -0.59657281502912     -0.36817404130665
  C   8.89729793779772     -1.40529248653963      0.88497871706327
  C   7.59775844075169     -1.34373375773281      0.13062690987809
  C   6.65432579360274     -0.26347528765991      0.63141686694907
  O   3.51214852897931      1.31213948312368     -0.58544870923847
  H   4.90587595738481      2.92462193573215      0.91781604242854
  H   5.40788838082493      2.99940305162352     -0.76653626376901
  H   7.46347451881228      2.97758672775243      0.27581816333721
  H   9.37603295133860     -0.89549076039106     -1.24050777464680
  H   8.96927783835153     -0.85744832886253      1.81731819496087
  H   9.44474136011864     -2.33667868584063      0.85253809046629
  H   7.20675030347318     -2.23054197190363     -0.34076392609043
  H   6.54502758298886     -0.33241051738386      1.71918445774058
