31
Coordinates from ORCA-job 23326optt
  C   1.10027519687131     -0.23781545971143      0.12400518528247
  C   2.61070793321667     -0.02353648040598      0.02802586482503
  O   3.29949957375002     -1.21546285301186      0.28651385914661
  C   2.97413515942346      0.53006020652388     -1.33699370790132
  N   3.49561805261277     -0.34083755426299     -2.18500418643113
  C   3.79605582622016      0.01699741016888     -3.41598281841256
  Cl  4.48270462335503     -1.23386537579074     -4.38512692541682
  C   3.61141688746525      1.32166923406756     -3.87742361909861
  C   3.84661740459090      1.71832143302587     -5.30850043418670
  O   3.92565133195807      0.92642015775693     -6.21909372683086
  N   3.90288312834692      3.06422971236669     -5.52431860177788
  C   4.00544561940067      4.05292169297647     -4.46951097796890
  C   3.78737000072068      5.43982057482543     -5.04366272763940
  C   2.98178385088365      3.70420498693480     -3.39970839206346
  C   3.11813514682765      2.26837581134567     -2.97015452112818
  C   2.74958712176938      1.86717226319664     -1.68437571785505
  N   2.13593598138606      2.73555981956119     -0.78947668281360
  H   0.85236553286704     -0.62740070936455      1.11053510535160
  H   0.79682041992269     -0.96878037132341     -0.62626851994144
  H   0.55008494475645      0.68889604065384     -0.04581714859849
  H   2.92519294278575      0.69446127704203      0.79648580860187
  H   3.58708751868662     -1.56662444696436     -0.57011221329666
  H   4.13983289070870      3.32328161240443     -6.47078911135542
  H   5.00243929184367      4.00874826768575     -4.01167151991004
  H   2.79510348227436      5.51367746354993     -5.49152723886528
  H   4.53157628187266      5.66220670497182     -5.80989875506435
  H   3.87605513151655      6.19359543506491     -4.26137418688124
  H   1.97210438453841      3.88761453836478     -3.78458812305641
  H   3.13555231083455      4.37803706117936     -2.55411535770225
  H   2.27314398049197      3.71978617158195     -0.94619408517494
  H   2.20981804810191      2.49026537558649      0.18512347616346
