23
Coordinates from ORCA-job 2333optt
  Br  0.97609894658117      0.15467624782962      0.28125132135693
  C   2.85714855658495      0.17370806234473      0.15977709993212
  C   3.60499013031380      1.29805778450404      0.01280889068129
  C   5.03162776207397      1.26414689613098      0.00091055456967
  C   5.96376662889676      2.27891682478519     -0.09199740399840
  C   7.27537940809950      1.65945777533887     -0.14878286316540
  C   7.16192284977186      0.30617230879824     -0.08257086010053
  C   5.76621064759366     -0.00706995078935      0.02032536240288
  C   5.16553290620832     -1.20742957953641      0.14815557626366
  S   3.48103784711226     -1.42701624897704      0.29676682807659
  C   5.72199072602031      3.71258870602231     -0.01707433090136
  C   6.78516710781822      4.70669121444093     -0.28507479243608
  O   7.89104748225628      4.46579786888521     -0.69168518922168
  C   4.56428961150637      4.27741739467156      0.36557155336807
  O   3.40714750920784      3.63378943346147      0.65502081924270
  C   2.97125685824950      2.62225185787737     -0.20371610635181
  N   2.10083121731275      2.82872811007677     -1.07453697400087
  H   8.19325117178673      2.21822734174484     -0.22512600405058
  H   7.96306497767980     -0.41555418439137     -0.09143403793714
  H   5.72747699107568     -2.13347394757736      0.17869049337525
  H   6.48452772295667      5.75199387668326     -0.08057067561857
  H   4.47836694775170      5.34824517397457      0.50682103763395
  H   1.79986599314184      3.80367703370154     -1.07153029912068
