30
Coordinates from ORCA-job 23330optt
  C   0.91594778546792     -0.16552229754802     -0.14634012301416
  C   2.41324961976720     -0.12216230992212     -0.06660813526124
  C   3.11756384329587      1.08023872855798     -0.00824075443929
  Cl  2.18225375313376      2.54968516630376     -0.04248740636996
  C   4.50856083097883      1.14561468872570      0.06223898411518
  C   5.24921337478601      2.45214311114602      0.12819606705778
  C   5.23481056303048     -0.05584096004871      0.05905105616344
  C   6.73915442094334      0.00215005078920      0.11786076512485
  C   4.54944500929895     -1.27061804927256      0.00346439635895
  C   5.27899714015422     -2.58522942789727      0.01181618706306
  O   6.04256968221123     -2.77925158969153     -1.20317120692548
  C   5.35988009875220     -3.11908118264546     -2.26865913938835
  O   4.18192069963081     -3.36067110919483     -2.32387277777868
  C   6.24031240314075     -3.19454057595675     -3.53603178600902
  O   5.52911351127653     -3.54611786169402     -4.60171363979271
  O   7.40509671128664     -2.96221481336928     -3.54764539701340
  C   3.16213361286278     -1.28767547134937     -0.06254596809953
  H   0.55722510312693      0.35713307763936     -1.03448430084431
  H   0.46301702267230      0.32586675729064      0.71608408828451
  H   0.56881101341530     -1.19610523426167     -0.18409476939639
  H   4.59174189852130      3.27999000539684      0.37271468703615
  H   5.72497035445308      2.67192054420552     -0.83116110063522
  H   6.03992476215532      2.40764845166445      0.87675642055556
  H   7.12798305178004      0.69518838380741     -0.62931276760725
  H   7.20056195507300     -0.96323471178496     -0.06789969725530
  H   7.07640489766818      0.36355710706502      1.09267502273330
  H   4.57753618879374     -3.41096796055119      0.11738584023553
  H   6.02532208989623     -2.64121141695049      0.80011990884167
  H   4.60625138807928     -3.67237114487346     -4.32281671861007
  H   2.65002721434767     -2.24031995558020     -0.13227773512961
