31
Coordinates from ORCA-job 23335optt
  C   1.36518769506223     -0.86281744187154     -0.17571959411029
  C   2.77158164496991     -0.28614494097384     -0.00121597029506
  O   3.76849248035737     -1.26171265745111     -0.27810615734910
  C   2.95342006496081      0.89624362409859     -0.96221963437836
  C   4.37472454495464      1.47851701863988     -1.00040266534454
  C   4.35632536404685      2.87197553811222     -1.58813730478291
  N   3.92084724260220      3.84918457767515     -0.72136870722855
  N   4.60530402621926      3.16836798700524     -2.80006035029700
  C   2.97644030816687      0.11474922829123      1.45980145663044
  C   3.02424930651611      1.45263361599757      1.82951429908451
  C   3.27127600727877      1.81692088038888      3.14130675392454
  C   3.45975678502661      3.25353730713660      3.48229667736267
  O   3.56829862559535      4.11431848728750      2.64792671729834
  N   3.41689983380522      0.94285420657304      4.13375819391644
  C   3.33188854577275     -0.33662493692762      3.81512757599826
  C   3.12687545051965     -0.79424506478906      2.51097985858872
  Cl  3.04610410610695     -2.50708435685505      2.32055896613112
  H   1.23453298614124     -1.19684032656134     -1.20816480367541
  H   0.61423169150239     -0.09899370667122      0.02811091090414
  H   1.20001375537359     -1.70727891559983      0.49024674875668
  H   3.49410529329931     -1.77943733872572     -1.04210181826538
  H   2.22836773854601      1.67938166063793     -0.73346827462055
  H   2.69537863936698      0.53856703568433     -1.96239750911062
  H   5.02116167518866      0.84005339347418     -1.59924021837140
  H   4.80711372263744      1.50843475936434      0.00186900774200
  H   4.12141690118830      3.77048628336398      0.26498488857920
  H   3.97011307782512      4.78731861892558     -1.08847313033713
  H   4.84733726886537      2.33636158018993     -3.32981966079466
  H   2.89075678165470      2.24273970496629      1.10530431988141
  H   3.52133089048741      3.46912224192743      4.56188169693673
  H   3.44046754596191     -1.06158806331358      4.61322772722576
