29
Coordinates from ORCA-job 23334optt
  C   1.05928341539354      0.07331825941661      0.08953766322608
  C   2.55753458660503     -0.14751908933461     -0.10023896460931
  C   2.87811831169455     -1.56742955273007     -0.57743290870764
  C   2.39720349156814     -1.80456719096454     -2.00784318489460
  C   2.98228782705465     -0.74120378401102     -2.93348339197925
  N   2.75392055900103      0.63383763017897     -2.48650904852431
  C   3.13264111742348      0.87930547740446     -1.09727408072787
  C   4.64460794209734      1.02139580209733     -0.98010289352839
  N   5.15736731498113      0.96707021749030      0.25269581484992
  C   6.44810128468268      1.14475743260002      0.39949772285191
  Cl  7.06891288479183      1.07625433374382      2.02029206212274
  C   7.34223962077698      1.38013501995450     -0.63534819506845
  C   6.79564789821344      1.43242940241237     -1.90412728671360
  Cl  7.82717976442420      1.72555101099408     -3.25698553104848
  C   5.43579635335977      1.25715415618993     -2.09777799091381
  H   0.64375102689000     -0.67469007396460      0.76671165215784
  H   0.50903929667528      0.00436865365730     -0.85078142237053
  H   0.86503520975163      1.05843274142044      0.51756738809379
  H   3.05019247936410      0.01622454774567      0.85816346607382
  H   2.43331086603977     -2.29405332379331      0.10592295292426
  H   3.96217377827971     -1.71881618965856     -0.53698459155669
  H   1.30491844061419     -1.77177195874152     -2.05196226706760
  H   2.69792387078573     -2.79642694260762     -2.35194712846152
  H   2.58328030214989     -0.83490169047435     -3.94424636134495
  H   4.06410946765581     -0.89533209644306     -3.00465709175151
  H   1.78578318054750      0.89122806219406     -2.62679561422317
  H   2.73063855905806      1.86280751717332     -0.83033643449461
  H   8.39774852646424      1.51520661354111     -0.45693988323005
  H   4.98825262365624      1.31323501450895     -3.07861445108403
