24
Coordinates from ORCA-job 23341optt
  C   0.90909272026213     -0.01963802980190      0.31621858670998
  C   2.42605548526505     -0.01347796378143      0.33138614473970
  N   2.92104443949115     -1.37033060364253      0.46529167049916
  C   4.23593484938673     -1.66764351316212      0.55334842671105
  N   5.10282686506174     -0.65225768194204      0.52586104977409
  C   6.39625571723258     -0.90884152361783      0.62796207467877
  O   7.23089810471773      0.14430101936786      0.59329202155830
  C   6.94086060135723     -2.17708376812881      0.75667333013760
  C   6.04259271593359     -3.23087585006291      0.77508187502798
  O   6.53397995208056     -4.50139555629659      0.92229832467654
  C   6.36706150196781     -5.36082190781045     -0.13359658430273
  N   6.74929952171353     -6.54804600766284     -0.12478490003879
  C   4.68122853056597     -3.00057570615399      0.67629090764180
  Cl  3.54473089879976     -4.29755385811432      0.74637448818889
  H   0.52904349379972      0.99550731171613      0.21223248150702
  H   0.51223655886955     -0.43657158222656      1.24313774454669
  H   0.52923743225164     -0.60903360480553     -0.52004236362900
  H   2.80123181000227      0.59035877438575      1.16039745915929
  H   2.82059603671345      0.43073792307103     -0.58591973247436
  H   2.26216414867480     -2.13029507940671      0.47525690842083
  H   6.68647125346262      0.93593231567661      0.49143857339457
  H   8.00402658858959     -2.34070444006941      0.83147800450813
  H   5.88754117938258     -4.90750683015905     -0.99903418588344
  H   7.17358959441813     -6.79618383737230      0.76935769444792
