22
Coordinates from ORCA-job 2334optt
  Br  1.13267099894916     -0.58344870251769      0.03998100263415
  C   2.96734602375793     -0.22454106549455      0.03999798647314
  C   3.50614715076186      1.01746124240165      0.04006707380898
  C   3.22086713299948      2.44517443738519      0.04012506774431
  C   4.37954238540265      3.18302600449056      0.04015220310062
  C   4.05041536204274      4.61757555540581      0.04012858293684
  C   2.71641644244957      4.75090255831291      0.04008980473340
  C   2.08481003627878      3.39302965734107      0.04008680421218
  N   0.86015589254917      3.06925224943963      0.04003490187210
  C   5.52074457808440      2.26415204316165      0.04014266690541
  N   6.83218913790711      2.24880955719761      0.04002978194276
  S   7.36631663178298      0.67596414356260      0.04034868724005
  C   5.79221895499749     -0.04727311632090      0.04003920292408
  C   4.92591798492529      0.98256768904666      0.04010479407023
  C   5.20429898278365     -1.38528037163117      0.03990002428291
  N   5.73171261899008     -2.53936865653277      0.03986265184988
  N   3.78556946142714     -1.32728787124216      0.03991511428776
  H   4.77639645252391      5.41643081608241      0.04014538158673
  H   2.14616090465313      5.66808590486160      0.04008265888118
  H   0.26753645900544      3.90173196760908      0.03999509153843
  H   6.74534355252292     -2.48354286036420      0.03992053198279
  H   3.35222285520509     -2.24042118219500      0.03984998499209
