23
Coordinates from ORCA-job 23343optt
  Cl  1.11033196108937     -0.09006417802067     -0.03175961107616
  C   2.83350900302118     -0.05857468097535     -0.07164971561810
  N   3.45797572296539     -1.14865482199882      0.32485735243309
  C   4.78110820151598     -1.13493724093458      0.34805763002612
  C   5.53011919731442     -0.03378789082049     -0.05763793669979
  C   6.96067918704620     -0.07676829100011     -0.02617184974798
  N   8.10675648609076     -0.10831890117913      0.02199259131527
  C   4.87323878821060      1.12054273237494     -0.49908071652154
  C   3.46640162051743      1.11963280823361     -0.47829665200817
  N   2.75578456429855      2.24862348494610     -0.89901731243406
  C   3.05933481985544      3.35953819018755     -0.35732081760531
  N   3.84318022107604      3.56175721982443      0.77483890675586
  C   5.15224792824659      4.17530362916663      0.53090852432725
  C   6.17284647226477      3.12851944166321      0.05521341338946
  N   5.62020264127829      2.21854950380713     -0.95490631501279
  H   5.27843953038771     -2.03513328901584      0.68812060293582
  H   2.66660026658537      4.27376338981895     -0.80021242896396
  H   3.94152603320738      2.70963146517931      1.31602906596170
  H   5.50879913469060      4.66390454346991      1.43800854498156
  H   5.01819280744404      4.94972289985862     -0.22827149217867
  H   6.50796345759482      2.52096882313902      0.89807684231974
  H   7.05680933205755      3.62079669606268     -0.35160470497134
  H   5.10695262324147      2.73098446621288     -1.66217392160799
