31
Coordinates from ORCA-job 23342optt
  C   0.66209842807840      1.94087957199541     -0.89841626091350
  C   2.16051070381888      2.20429260221983     -0.95475839918863
  N   2.64945863298877      2.97025170032220      0.20298608539821
  C   2.93782729403386      0.89249890032801     -1.03328807655415
  O   2.42377086861416      0.18519680937870     -2.13010923077042
  C   4.47778950912904      1.07927530345504     -1.12052747001070
  C   5.11078145720948     -0.24187737802229     -1.10492711909801
  C   5.57579229782973     -1.34253723062593     -1.02403333838270
  C   4.95083527612653      2.00084144403927     -2.23125053893531
  C   5.24541343116623      3.33135349795511     -1.89011934630211
  O   5.12563410339212      3.82125873819057     -0.62975489513903
  C   5.74200919888808      4.17495464503899     -2.87205422011734
  N   5.94239819715972      3.80684164093692     -4.12790476508850
  C   5.63760019856485      2.56860699349493     -4.49153387129435
  N   5.78829737879660      2.25705028099173     -5.82517099426657
  C   5.13960663679393      1.64051520669476     -3.56165498505178
  Cl  4.81416713985981      0.04452925068928     -4.15982491635650
  H   0.11656804652984      2.88374764924549     -0.83353214121319
  H   0.41610852600840      1.34002850821853     -0.01880462548635
  H   0.32939818050347      1.40429892453002     -1.78435675916458
  H   2.39424856336381      2.78552807700956     -1.85135649376492
  H   2.50847773207985      2.43728679592071      1.05721461347884
  H   2.10624798488814      3.82140067396777      0.30527339268356
  H   2.75506707765323      0.33361768709583     -0.10171320065848
  H   2.99164772340421     -0.57450628028130     -2.30701894169170
  H   4.78128651948557      1.55824005057581     -0.18661465562139
  H   6.00979159437685     -2.31215177051361     -0.96589991036833
  H   4.27370383255537      3.52891690463266     -0.21819089020141
  H   5.99247178408522      5.19489635141428     -2.60353493682096
  H   6.36933362620587      2.91116629837586     -6.32456663871644
  H   5.92065805640965      1.28859815272568     -6.06355647038308
