21
Coordinates from ORCA-job 23361optt
  Cl  0.76369803057603      0.10019524297592     -0.02532009290086
  C   2.46340148562123      0.15057422482923     -0.03482780819848
  C   3.20204245280948      1.27681991940475     -0.08717910724535
  O   2.78118732776610      2.56331114619541     -0.19751670717839
  C   3.93869591162440      3.34505814357133      0.08412615998265
  O   5.06621908291274      2.52485137893563     -0.18052567963601
  C   4.61572079575881      1.24110985500395     -0.07757604531666
  C   5.32366923999300      0.08965077502219     -0.02181406834294
  C   4.58237346813788     -1.11378115625879      0.01067254479090
  N   5.01813814361079     -2.36904446777511      0.07921243578985
  C   3.88808843782836     -3.07708848433968      0.15490509779821
  C   2.76221749006809     -2.33430369956370      0.14605539986391
  O   1.63705724779867     -3.08494336837253     -0.02884533146972
  C   2.16170519491583     -4.38859371922949      0.31395804075584
  O   3.56955037032858     -4.40220277423387      0.05443435169799
  N   3.15463254067142     -1.04065385747087      0.01288071844966
  H   3.93311798438774      3.62643238432354      1.14198769553430
  H   3.95507107630930      4.21284882871157     -0.56851192390217
  H   6.40184066955950      0.04727087709979     -0.01558423311223
  H   1.67020166987198     -5.13714502752269     -0.29811294726282
  H   2.00237137945004     -4.54236622130657      1.38558149990232
