29
Coordinates from ORCA-job 23366optt
  C   1.07672296149989     -0.23346113536254     -0.58933626610368
  C   2.59359777985648     -0.21178259596097     -0.44894837582154
  C   3.09156710758316      1.19105039284077     -0.10811154667288
  O   2.60554199261842      1.60346998473228      1.16132652898850
  C   4.60120588204189      1.35686906560788     -0.15865183279584
  C   5.38555188399045      0.28308943073645      0.03176613847075
  N   6.76976054910821      0.31445286461388      0.03016205406041
  N   7.36298697418602      1.36932200159246     -0.24456798446722
  N   6.65478622216074      2.50646296033625     -0.51254061410086
  C   7.43671269955145      3.59793978469203     -0.85343680053671
  Cl  9.12490414511764      3.35263718819073     -1.00971396423011
  C   6.89643351947477      4.80468072239235     -1.06282375885606
  C   5.47056982078899      5.03455247345229     -0.92478005775003
  O   4.98714210203553      6.14017810950072     -1.11606978916003
  C   4.65641123119284      3.86798536493870     -0.55392349820358
  C   3.19755634814396      4.19101219489851     -0.39123598082986
  C   5.24706725114116      2.64563808803046     -0.39917457057502
  H   0.71859563792383     -1.24508578117558     -0.77730158792595
  H   0.75567351235485      0.39628317100794     -1.42073394939998
  H   0.60093288311763      0.13694600605538      0.31797853819732
  H   3.06458662416658     -0.54807290104903     -1.37549900043840
  H   2.89444190979420     -0.91038724211361      0.33736880182322
  H   2.64610992557842      1.87857405094476     -0.82515759517982
  H   3.00404816649571      1.04530202712369      1.83888464240249
  H   4.98417110658509     -0.70566043277167      0.19236277017273
  H   7.52459536876208      5.63877211386098     -1.33793293614042
  H   3.13181054585828      5.25144489444044     -0.15614911671074
  H   2.71775113862067      3.61975968421415      0.39527548981475
  H   2.65276471025097      4.05502751423025     -1.32903573803146
