30
Coordinates from ORCA-job 23373optt
  C   0.77960200422761      0.25398547202154      0.34486049004348
  C   2.30249631552938      0.22170854064076      0.28859157249224
  C   2.88785484747274      0.35140275171915      1.69109572623222
  C   2.78469826114070     -1.06166505184268     -0.42565482318962
  N   2.28201172901232     -1.06970733161106     -1.78805657709401
  C   1.47599773587265     -1.97988785042752     -2.11102063974989
  N   0.93361938305597     -2.04880419132880     -3.37605929145034
  C   0.06291834536832     -3.02431129665174     -3.79240503049188
  O   -0.40697782762899     -3.07214249783715     -4.89445261422836
  C   4.29690224667743     -1.11468251554092     -0.47504813291311
  C   4.99776161247854     -0.46434078112676     -1.40820938930284
  C   6.45296356909514     -0.49149324279444     -1.42704747669276
  N   7.23562664229168      0.02399646632538     -2.26926278944578
  O   7.06421451424861     -1.15069184363592     -0.38207255137449
  N   6.36775801562628     -1.87677898505393      0.53875471674583
  C   5.09793663575823     -1.85882123459826      0.49131178503217
  Cl  4.32572269389776     -2.84025389741603      1.68666853369747
  H   0.43947890364679      1.15010474432087      0.86487460431580
  H   0.40158064721094     -0.61242071073672      0.89583165530514
  H   0.33565601919566      0.25126888882437     -0.64964666420367
  H   2.65466887860615      1.05768271817605     -0.32451534045465
  H   2.55862549819181     -0.47251972236768      2.32749439718427
  H   2.54872670641709      1.28174680630050      2.14730890152614
  H   3.97903933441811      0.36306222022580      1.68809497694962
  H   2.41713255979697     -1.92586938662182      0.14230087070240
  H   1.13837036355494     -2.77442188850471     -1.43819818310267
  H   1.19382547005285     -1.33442847640952     -4.04448631969280
  H   -0.15723362167824     -3.76376039561201     -3.00597521530522
  H   4.49437067414207      0.09020319481737     -2.18959339699098
  H   6.71265184232045      0.50883949674588     -2.99248379454371
