30
Coordinates from ORCA-job 23376optt
  C   2.84875662424543      1.22417042252075      0.37795479553731
  C   2.46703421683041     -0.25278093797561      0.20232081985558
  C   0.99598821264157     -0.49481062417794      0.49855737243536
  C   2.80716803622059     -0.66779937372131     -1.20957593567317
  O   1.98563654520920     -0.82966075263723     -2.06978447001126
  C   4.30532060842659     -0.78675706836281     -1.60735138155156
  C   5.25674315585462     -0.84670280396804     -0.49849243805361
  C   6.06632532633953     -0.88753646217175      0.38269026712679
  C   4.51750127934031     -1.93048952383215     -2.57952286534343
  C   5.04356422112789     -1.71408532070899     -3.85788105022440
  C   5.41599478418128     -0.33858087242481     -4.33885805428207
  N   5.24549134164067     -2.71175163263778     -4.71805573711298
  C   4.94281005372963     -3.94762847416914     -4.36033200883392
  C   4.41902353928451     -4.26965847304154     -3.11793149391921
  Cl  4.06492260265128     -5.90937909335607     -2.74577891253302
  C   4.20094081899892     -3.23587629444449     -2.21586929063224
  Cl  3.54472780589969     -3.57259045128244     -0.66249821417737
  H   2.64237426625159      1.53532233062544      1.40217267848239
  H   2.25466355848733      1.84796382960898     -0.29251805526053
  H   3.90673834601383      1.39986968086204      0.18105982440719
  H   3.09367009402056     -0.84914888205105      0.87057651431622
  H   0.36897908368377      0.10415813146736     -0.16181806685446
  H   0.77337501353579     -0.22399253835928      1.53100220770452
  H   0.73291070111672     -1.54159325106540      0.34635563595320
  H   4.49268145843315      0.14982043007874     -2.13886301867345
  H   6.78312449205849     -0.93079545331443      1.16770593838630
  H   4.53987441064628      0.31182524463903     -4.38639279746118
  H   5.84178160494039     -0.42258411691436     -5.33465113087081
  H   6.14916192121201      0.12934986022711     -3.67887455926573
  H   5.11771587697788     -4.73527752941279     -5.08434657347042
