30
Coordinates from ORCA-job 23371optt
  C   2.32024252455997      2.88360752313425      0.46626658591140
  C   3.06845574864678      1.57183453674861      0.31373125132159
  N   3.59462108896823      1.13831838666300      1.59335982403514
  C   4.20067952588218      0.02628017051401      1.63057754242648
  N   4.47621385218604     -0.80584719415324      0.56999264325854
  C   4.76225671080952     -0.39035939965117      2.97060765254029
  N   5.37213299555986      0.51637198353991      3.63077142388654
  C   5.87611847529250      0.36299423013300      4.88615010336127
  Cl  6.69500066103963      1.79059751217478      5.47005481934216
  C   5.75617135400385     -0.70773782356202      5.68836574581647
  C   6.22918148555804     -0.81797847582114      7.10945784236026
  C   5.10531428218578     -0.61152786012807      8.11900568810552
  N   4.37401474454443      0.52261248380070      7.91297053431989
  N   4.82455982051083     -1.40258760504619      9.07154469478144
  S   4.92845124590735     -2.12292992885208      5.12493886552892
  C   4.56024304401218     -1.78779880188420      3.43484592745137
  N   4.11109589240294     -2.68833968982722      2.65968152388165
  H   1.92014856229846      3.22184448799436     -0.49012302533856
  H   2.98835155229531      3.64948321646283      0.85901216467791
  H   1.49612100885976      2.76424174250280      1.16942334703558
  H   3.88890944878634      1.68929067383095     -0.40714048633501
  H   2.39167442161970      0.80973383390342     -0.10087935413940
  H   3.95910417865742     -0.62362148794000     -0.27576648789787
  H   4.55164910624080     -1.78592931237939      0.80374562684681
  H   7.00263879271879     -0.06964766851800      7.28375589301606
  H   6.66736919074339     -1.80163379089086      7.27816301636961
  H   4.75171088323359      1.26770900825770      7.35160159716180
  H   3.71917647953299      0.77216870053415      8.63580047884355
  H   5.42075821785959     -2.22329964597215      9.06086848229987
  H   4.02663470508363     -3.59984980556875      3.10521607913064
