26
Coordinates from ORCA-job 2338optt
  Br  2.28463424797889     -4.71188150610000      2.74440500824824
  C   3.13566399862537     -4.98880324698559      1.07121373806386
  C   3.14675633143244     -4.01727645787464      0.12184012241642
  C   2.52852016929723     -2.70410443377994      0.35917458031149
  C   1.26011107294508     -2.40491173811288      0.60893695941055
  C   1.05154287404472     -0.92678969837787      0.78737118951565
  C   2.48870527157969     -0.41280205723600      0.97768523714189
  C   3.37108866071810     -1.44515970497608      0.26654173391840
  N   3.55040796302888     -1.08373154145913     -1.13219249071181
  C   3.67506087327335     -1.95291667958095     -2.16492763809704
  N   3.77025503614040     -3.22188989192846     -2.20956972021556
  C   3.81469445737511     -4.16535165772455     -1.17643057386847
  C   4.46530163235922     -5.30354535485956     -1.49327862442689
  S   4.66204413778761     -6.67887782488246     -0.49579992096583
  C   3.75438219216358     -6.31783919450283      0.97329696964526
  N   3.66156945318743     -7.17741976463627      1.90413893964110
  H   0.46151283698093     -3.13195634519427      0.67231270520813
  H   0.41199468913319     -0.69455842630753      1.63946490887742
  H   0.57374011353935     -0.49768090663923     -0.09841295264348
  H   2.73784499939745     -0.42051595793092      2.03887877336084
  H   2.64948276850660      0.59923812341211      0.60279235310705
  H   4.34359398842338     -1.56775888232539      0.75178959601191
  H   3.56548248843255     -0.10417908065206     -1.36226813804277
  H   3.70541776385871     -1.43860862626723     -3.12503919397753
  H   4.91216953752515     -5.39993649195733     -2.47352055111888
  H   4.14202244226553     -8.04674265312086      1.68059698919005
