27
Coordinates from ORCA-job 23381optt
  Cl  1.20600183073855      0.29666855856638      0.55220419462279
  C   2.92780939899245      0.19503294777797      0.34160772879475
  N   3.45693622523086     -1.01787783127258      0.23776609262764
  C   4.76877089069784     -1.12512962320531      0.09114306425720
  C   5.66066640095171     -0.03983163911940      0.02733241554447
  C   7.15809669951436     -0.21101581777488     -0.06952368704478
  C   7.61652081490846     -1.54057571288403     -0.70628485357523
  N   7.84915338822517     -2.35061360660018      0.48958052161997
  C   8.04930349394766     -1.44712260484101      1.51763520137591
  N   7.71635505635594     -0.24053161812140      1.30451596583106
  C   5.07152867307892      1.19719567966118      0.13491850072638
  C   3.68989174103322      1.33070426337097      0.29127145671079
  C   3.53279998992520      2.83932423245838      0.38636504813642
  C   4.68569353738204      3.16792909474669      1.37862711110017
  C   5.51083536006932      2.65576630879090      0.16287017359638
  N   4.46867609547132      3.33083596104602     -0.67456236561021
  H   5.14926071859896     -2.13936603146603      0.02703137421280
  H   7.57222361805684      0.64470479627385     -0.60203784749269
  H   8.54244835769031     -1.39759221986118     -1.26953087238836
  H   6.86980569545475     -1.98335375428441     -1.36293302063209
  H   8.45807961346709     -3.15158541932269      0.42979072140175
  H   8.44121536047755     -1.79849837457499      2.46566240978495
  H   2.54022988323090      3.27193530899053      0.45152904873158
  H   4.74006100239450      2.60293207390725      2.30501345875123
  H   4.80608115895348      4.23798112383865      1.52456411976562
  H   6.55396095174325      2.91011370785758      0.00368053245795
  H   4.32159404340923      2.87397019604173     -1.57323649330645
