27
Coordinates from ORCA-job 23388optt
  C   1.02791057949206     -0.23402986747097      0.19576840345863
  C   2.47983409209424      0.21657913845648      0.01628392071539
  C   2.91532350674411      1.13160845687337      1.12794281449643
  C   2.82144895073198      2.51131691687249      0.95567686300009
  C   3.18014390296393      3.36102656226774      1.98247831044634
  C   3.64181840386490      2.86848709354316      3.19859250302199
  C   3.92420150148948      4.01967348833071      4.06096500750662
  N   4.43545721263226      3.94892413823414      5.21823738118219
  O   4.57122312344430      5.20268652222652      5.77938552224597
  C   3.54557918363026      5.23038285573663      3.27474912039097
  C   2.12938982220205      5.33650925995294      2.84297742668984
  N   3.13964227791457      4.78536963190953      1.93348771538526
  C   3.74376820823125      1.49487294117493      3.40187664612768
  C   4.22200740928226      0.96483248187062      4.64470488812778
  N   4.59957999263580      0.52698031665971      5.63509656095867
  C   3.37257427300573      0.64103592595548      2.35669720065195
  Cl  3.49779204311439     -1.06351791415617      2.60651064827088
  H   0.72627245195374     -0.89006411191600     -0.62051764423977
  H   0.35999157581281      0.62835248741507      0.20823003375951
  H   0.90304561035292     -0.77444268986519      1.13415315860443
  H   2.58277468404831      0.74988809733156     -0.92968185079926
  H   3.13452922343073     -0.65349227413935     -0.02912537465327
  H   2.47527629264521      2.91589067288943      0.01245289161449
  H   4.98837669203199      5.02398604345633      6.62835922076225
  H   4.16214037981948      6.11465941535005      3.34456039505932
  H   1.74328005690334      6.30584207934967      2.55990258463968
  H   1.41661854952787      4.64064233169107      3.26923565257592
