21
Coordinates from ORCA-job 23399optt
  Cl  0.85422556620792      0.00023341699864      0.07002605864876
  C   2.57347063240912      0.00169036448085      0.08486669622712
  C   3.28424728893530     -1.11392915006953     -0.18485304256389
  C   2.66860588733841     -2.44098563617658     -0.54587661794901
  C   3.41557826394655     -3.55972466415473      0.14761217595153
  O   2.88487269810912     -4.50330794200537      0.65780100758937
  C   4.92311992798602     -3.39213681504965      0.15629756891516
  O   5.33608601857238     -2.22169297924204     -0.54382789672783
  C   4.72466916227719     -1.07469719389447     -0.19033635359034
  C   5.50807700957476      0.01695982605232      0.04821197412315
  C   6.99248858741882     -0.13869932683235      0.05578193758319
  O   7.56917898811890     -1.02320194815428      0.62006630906482
  C   7.75839027696524      0.85436598793447     -0.72818416868026
  N   8.37129969232411      1.55834137578147     -1.39211615798708
  C   4.99846926602565      1.33509815939701      0.36338856472975
  O   5.67284672081464      2.29656365734526      0.62194622233784
  S   3.21460103618174      1.55961559859496      0.43728799191767
  H   2.77428705126028     -2.60376959318936     -1.62560222561853
  H   1.61551515264229     -2.50145842506973     -0.29050525746792
  H   5.38805561231942     -4.23550158117643     -0.35033139620503
  H   5.28691516057205     -3.35576313157044      1.18634660970155
