27
Coordinates from ORCA-job 23397optt
  C   1.31942540197627      0.58006061935008      0.60110047064189
  C   2.49976385160547     -0.16789801158413     -0.01688056642026
  O   2.12103215477679     -0.80666906753112     -1.21649361406389
  C   3.58134957877032      0.80748920100492     -0.31154911515753
  N   4.41343997178392      1.55900573593301     -0.54749432750194
  C   3.03331286427359     -1.24149876277365      0.99688898700570
  C   2.48429944390015     -2.65395560343152      0.76081762104909
  N   1.11130686183963     -2.68695612725829      1.24919215932733
  N   4.48888609207927     -1.18600388552494      1.21814003723980
  C   4.89338907963673     -0.53579123882753      2.43599560790933
  O   4.05796704966945     -0.01232009834363      3.13121908543357
  N   6.23095615587695     -0.56886693360324      2.75249426656011
  C   7.08262119856628     -1.03931084930806      1.90402621675652
  C   6.74572189770743     -1.56171603197925      0.63317166038702
  Cl  7.97982188396564     -2.08744450275313     -0.43285803417864
  C   5.41899755289052     -1.61972349382283      0.32829256056454
  Cl  4.89753376284861     -2.20489659520672     -1.18303254458767
  H   0.94061440545738      1.32729019904318     -0.09840303694544
  H   1.63214954883237      1.08575065265339      1.51449697538168
  H   0.54279586738044     -0.14864055947013      0.82872450922747
  H   1.56588911139794     -0.20590458173801     -1.72511922888226
  H   2.65197733796785     -0.92581283340801      1.96372992486190
  H   3.15463876431757     -3.35935015864296      1.26604708080699
  H   2.47047071837467     -2.89919497992624     -0.29567226974442
  H   1.08076019549004     -2.73571011858611      2.26092379908258
  H   0.61475477137088     -3.49020842893714      0.88750933970900
  H   8.13212447724371     -1.03072354532791      2.18773243553750
