25
Coordinates from ORCA-job 23391optt
  C   0.98474405299855      0.47782314845236      0.38964994381359
  C   2.38309968192775     -0.09313016815640      0.37150463206625
  C   2.62511622207441     -1.53893463809502     -0.19613872828039
  C   4.02141776933201     -1.01357575808729     -0.58249772098140
  C   5.09158780514854     -0.99112829713453     -1.63084423106827
  C   5.77636731702915     -1.91663945336047     -2.39326902235693
  Cl  5.33060947507992     -3.58233995685239     -2.33945442276407
  N   6.78432923309849     -1.59537585567643     -3.18744014472969
  N   7.19278909847140     -0.34912447388869     -3.25941380460729
  C   6.59454308190718      0.60142118886867     -2.54305067582942
  C   5.52388924011499      0.33151478942091     -1.70979767796168
  C   4.68814836563089      1.26663594511386     -0.82541401651938
  C   3.42488131263903      0.38882834633946     -0.70908399599736
  C   2.69089125906401      0.53311015376074     -1.97509235290998
  N   2.09781764321979      0.70550158908153     -2.94107052744475
  H   0.36737949625751     -0.07230415702190      1.10082847458672
  H   0.51662928129253      0.40744484505459     -0.59247181389236
  H   0.99389978018156      1.52635106397092      0.69012532675969
  H   2.85343881349545     -0.01464354140340      1.35298962625093
  H   1.98309885022483     -1.72708510870961     -1.05574446991853
  H   2.58305687083129     -2.37233832431482      0.49920202958360
  H   4.57586052086490     -0.99595762357364      0.36479742084036
  H   6.99871074446614      1.59814634448562     -2.67091494699518
  H   4.53937035746205      2.24895016462171     -1.26861329091758
  H   5.16432372718760      1.38184977710423      0.15221438927313
