23
Coordinates from ORCA-job 2339optt
  Br  1.17706391170854     -0.10686240090493     -0.82380142066535
  C   2.92431837025939      0.03632692025746     -0.17150575386214
  C   3.52122997417973      1.19361857214191      0.18964968534291
  C   2.88475916327078      2.50249360055239      0.23670489522186
  C   1.59397990347978      2.79093320607952      0.49855276862475
  C   1.33203500108519      4.23087068539733      0.30421971720551
  C   2.45546328003258      4.82680665021680     -0.09967481848847
  C   3.53492666105896      3.81044731012908     -0.09698189662378
  N   4.74133147975622      4.15206669163055     -0.28128433930572
  C   5.84124653852673      3.30978962128384     -0.06323265807923
  N   6.99292329633736      3.61082107827662     -0.48763125553891
  N   5.72218072622459      2.20164689667711      0.80093442305299
  C   4.94514071549729      1.07375205969092      0.52458234513498
  N   5.58013873790876     -0.02890450687766      0.64838436639857
  O   4.87788412576016     -1.19971709243464      0.49009869471428
  C   3.64477663747289     -1.24236811700169     -0.09473667955274
  N   3.15353306028120     -2.33568883688241     -0.47933763138304
  H   0.84056905425836      2.08595721989208      0.80949622861639
  H   0.37053185820021      4.69294029627881      0.46826102043435
  H   2.63995681513480      5.86460917582175     -0.32507384516219
  H   6.95220264214821      4.50864758648824     -0.96608730728479
  H   6.65602375583237      1.89857666508908      1.06074445953022
  H   3.81478429158586     -3.09776328180217     -0.33828099833045
