25
Coordinates from ORCA-job 23404optt
  C   0.99054866589460     -0.00026810258098      0.57960536130339
  N   2.42417999703908      0.07087405486608      0.26917848830288
  C   3.09536559534464     -1.07327183247738     -0.03158390390852
  C   2.38107084853025     -2.37403525092991     -0.19211930045935
  C   4.45331109549083     -0.98150260907601     -0.17681705463883
  N   5.38549357963950     -1.93965289604424     -0.45626198419883
  N   6.53199737827007     -1.34337775847482     -0.42119631104439
  N   6.45000712055602     -0.02255512843946     -0.13125451317863
  C   5.15942450425811      0.22696525406724      0.02290889623108
  C   4.43009479417148      1.39352235862739      0.31379726830361
  Cl  5.27058098776817      2.85718727221000      0.63851222365937
  C   3.06026470698296      1.30606558537990      0.37990309857273
  N   2.22367319204205      2.39028461534005      0.65153873246880
  C   2.39656945387366      3.63459374816769     -0.07598419393087
  C   1.21957035480421      2.77997850110088     -0.33502447299305
  H   0.75838010169661     -0.99206863208137      0.94858683502922
  H   0.38509300230684      0.20457552582692     -0.30311011691811
  H   0.76205825199632      0.72838678147564      1.35054336902651
  H   1.54097582002383     -2.29027289884243     -0.88294598234256
  H   2.00301100968655     -2.74299085077827      0.76359733560295
  H   3.09591297354308     -3.09718321883390     -0.57692881521937
  H   3.15452388963582      3.66128075180299     -0.84637633798494
  H   2.30851965521801      4.52742757411838      0.52668093355860
  H   1.21371678698119      2.24004662645405     -1.27559114969501
  H   0.24865623424609      3.02899052912157      0.07234159445333
