29
Coordinates from ORCA-job 23405optt
  C   5.23147308537978     -1.74212458621093     -1.48879393001048
  C   4.41241646523594     -0.75790793990826     -0.69727081345660
  C   4.81301533696113      0.52833835441708     -0.58487388346075
  Cl  6.23869416814567      1.17427277805690     -1.29624918392754
  O   4.17689704855810      1.48712824168332      0.08819135271388
  C   3.00814937287277      1.24156642548034      0.79521032512554
  O   2.50584010133330      2.15310060593497      1.38215806171221
  C   2.54123479832345     -0.12015787143848      0.71311816828550
  C   3.17687384463979     -1.08212515017783      0.00506769932116
  C   2.56715350494890     -2.50104108307482      0.03988181339815
  O   2.91356695759029     -3.27773947456629     -1.08805825723194
  C   3.05577460175992     -3.21445581581788      1.30356858699398
  O   4.44285848108860     -3.45193184250003      1.14044150673794
  C   1.03379003974104     -2.49091167546591      0.05958614268831
  C   0.39751267004840     -1.77389650667068     -1.12403135568307
  O   -1.00645428761321     -1.95309054206263     -1.13418976130317
  H   6.14334110090553     -1.27488503269945     -1.84544583283025
  H   4.67628104980090     -2.10894300041113     -2.35009140924964
  H   5.51897927615739     -2.58867001934279     -0.86541571083786
  H   1.62790366892407     -0.30586530504292      1.25707482365004
  H   3.78106708673779     -3.66715403699446     -0.92780947704273
  H   2.51092309382615     -4.15922854861954      1.39244906675239
  H   2.85571702205506     -2.59214512160681      2.17952415361305
  H   4.77594703234496     -3.97556840838716      1.87375487435855
  H   0.64339610034283     -2.08114784466058      0.99237897529762
  H   0.73458527629525     -3.54153821619648      0.02501138967779
  H   0.85024957646527     -2.12640142621079     -2.05495119475789
  H   0.55972534345885     -0.69887623574218     -1.05947482570180
  H   -1.20391181632800     -2.86760072176452     -1.35476130483239
