27
Coordinates from ORCA-job 23406optt
  C   1.47613664045057     -0.78126032338784      0.92874621159285
  C   2.76134226397776     -0.76076413299348      0.16153862907421
  C   3.37899455124838      0.38094580168624     -0.17948675359404
  N   4.47040704237251      0.41513200469211     -1.06102017306262
  C   5.15216722931653     -0.63795770041128     -1.17279447949096
  Cl  6.39069630744625     -0.70859138506021     -2.39453723586422
  C   4.86658848820482     -1.86355670078331     -0.37496917878658
  C   5.82160855062614     -2.42282926897290      0.38434482702694
  C   7.28147371766962     -2.09841846053525      0.38927817932777
  O   5.50969260839243     -3.39150686269114      1.32357945760248
  C   5.75075604812443     -4.71804216469987      0.91394110683938
  O   6.74697015686406     -5.29479372219829      1.17452524034479
  C   4.53450815521266     -5.08488637788143      0.16296602830526
  C   4.48725377518990     -4.86458936566356     -1.14356910024910
  S   2.93750294565070     -4.39325836513858     -1.83251236261392
  C   2.59697677147372     -2.95309571405537     -0.88699536042889
  C   3.38587523091149     -2.01963685733164     -0.32795809225110
  H   1.21072238727156      0.22469244339873      1.25040476846642
  H   1.55624129121426     -1.42332340516153      1.80727590141526
  H   0.65137476504435     -1.16095903213046      0.32133430100652
  H   2.99642007047136      1.34862201207757      0.11542412636346
  H   7.50391269764047     -1.14451832350635     -0.07534963585451
  H   7.84096700087277     -2.88000496348053     -0.13213646858542
  H   7.62259549521978     -2.08965515091881      1.42365702874995
  H   3.62189557322383     -5.08812337813337      0.74904663983309
  H   5.37194718421692     -4.79556527020554     -1.76453881894454
  H   1.52597305169265     -2.78805533651388     -0.84719478622248
