26
Coordinates from ORCA-job 23417optt
  C   2.12357859298795      1.52013552317988      1.50753507737669
  C   2.90620737277419      0.67510271939801      0.55819057974756
  C   2.72477322870736      0.58443965650225     -0.78505935062612
  S   3.86275646696014     -0.49261572407841     -1.47926318974793
  C   4.51680213927312     -0.75975500796427      0.08509110364380
  N   3.93417802268943     -0.10581828540179      1.03663194197488
  C   5.67689965018777     -1.69167497404181      0.37302222061024
  O   6.11748207041644     -1.52417713041912      1.68499028548376
  C   5.25818880901796     -3.12589612942282      0.11875587858479
  C   5.43065397977830     -3.82158887813549     -1.01144407948747
  Cl  6.18094501520937     -3.11286506865577     -2.38358889331948
  C   4.96791201110191     -5.22653792732736     -1.13584914612402
  O   5.12928853522248     -5.87355725620743     -2.15004900919136
  C   4.32589106090073     -5.71705618168299      0.06003177709811
  C   4.19168433678769     -4.93048637446042      1.15152414515049
  N   3.65879762936033     -5.29130279321868      2.35114538770087
  O   4.62927418949598     -3.66027445704549      1.19166049254065
  H   1.34175344755623      2.06961035308051      0.98700164222423
  H   2.78099274750715      2.23281318681451      2.00700902356574
  H   1.66435523330603      0.89953006371410      2.27768535722582
  H   1.99528740077818      1.09645095149607     -1.39076240375126
  H   6.49531260688858     -1.46770802472704     -0.31345375494628
  H   5.43777802242458     -1.01996848083876      2.15668468616411
  H   3.96363404378954     -6.73417441694903      0.07185523601811
  H   3.07836136607861     -6.11164399551527      2.36907594001812
  H   3.39621202079985     -4.54398134809335      2.97257905206593
