29
Coordinates from ORCA-job 23412optt
  C   1.43202639742058     -0.49308436205639     -1.10454819531764
  C   2.54673163467021     -0.17012599633783     -0.12298896219490
  C   3.89528352889390     -0.14149361741098     -0.77531509413823
  C   3.55712620928766     -1.26152873086878      0.16184445689549
  C   2.82520358075795     -2.54836893463708      0.28145391042689
  N   1.88670365568445     -2.25980517050329      1.42905860175021
  N   1.28841343748750     -3.39838473309351      1.87155347276499
  C   0.71012487703937     -3.41592188677462      2.99757688480013
  Cl  -0.11770128001946     -4.80937925129032      3.52166951476495
  S   0.80104904122154     -2.01944489384291      4.08956222791325
  O   2.09437425196320     -2.08237545982069      4.71015652579856
  O   -0.37307519408946     -1.94366190935137      4.88662039928297
  N   0.83509104018343     -0.85107350634975      2.98413898622785
  C   1.54778597872104     -1.02492893266879      1.91084466362655
  C   1.99056502011457      0.27001857227619      1.20484409834992
  C   2.88545641098199      1.05964940567719      2.18136834652142
  O   3.85438982857843      0.27658535563765      2.84423330374634
  H   1.78999594006771     -1.07036889330771     -1.95663607009331
  H   1.01456561398403      0.43991257087218     -1.48819916434676
  H   0.61454566553750     -1.04916436868882     -0.63757818490231
  H   4.68901019027806      0.49045623525538     -0.39870022483653
  H   3.88585140822621     -0.25359299988412     -1.85061536139260
  H   4.06392264314335     -1.07406085992841      1.10140069827370
  H   3.42592116014720     -3.39561104600261      0.60688320884642
  H   2.23159209102518     -2.84429473450606     -0.58120090398830
  H   1.07705244027700      0.85965119406427      1.07796668378442
  H   2.23662988350320      1.55738345470438      2.90370038467856
  H   3.42271981163483      1.82402069331233      1.61834502867904
  H   3.44264473327879     -0.18800719447555      3.58556076407889
