26
Coordinates from ORCA-job 23426optt
  C   3.08843616892135     -0.16453718770369      1.47669313964681
  C   2.53703981564161     -0.18531681605334      0.08108973754218
  O   1.45446578316356      0.24093192672305     -0.21102258685556
  C   3.36268118546398     -0.92484271242889     -1.01226290632718
  O   3.07469358741529     -2.30554603771506     -0.83107736663781
  C   2.97251698480991     -0.48098215958544     -2.42334166792670
  C   3.19393695382254      0.98821748211865     -2.77661718691467
  O   2.62756384905148      1.26996256322577     -4.04180162896608
  C   4.84881958771355     -0.77869365750924     -0.78871660269905
  N   5.35119219431511      0.41150874490519     -0.63203317846561
  C   6.70354758788105      0.41746666646941     -0.48585305499667
  Cl  7.36775902911223      1.99759462719238     -0.29902916362288
  N   7.52314100756842     -0.57121096682182     -0.47031294625747
  C   7.00453346522238     -1.84556466157387     -0.61750522093144
  O   7.63318159596743     -2.86506042705819     -0.61235643060223
  N   5.59832782646827     -1.88238227012424     -0.78664517941494
  H   2.28418443193699      0.02387373577271      2.18255457940737
  H   3.83171361022879      0.63142516890202      1.54713626250216
  H   3.58617469775010     -1.10840742972709      1.70626833447452
  H   2.17610716179627     -2.47563411540494     -1.13637205354398
  H   1.90269287921724     -0.67783922314139     -2.52849430294020
  H   3.50590286983364     -1.12294433050883     -3.13100946430278
  H   4.25236637156491      1.25095722676942     -2.75236540526471
  H   2.67652479677349      1.62379970702231     -2.05935047766462
  H   3.21307855136103      0.94847799508395     -4.73252620924662
  H   5.15041800699932     -2.78625384882882     -0.88404901999181
