27
Coordinates from ORCA-job 2342optt
  Br  1.23614791111162      0.20574711823138     -0.75235547675876
  C   3.08533158853262      0.09968297547765     -0.47190322988899
  C   3.73584957457880     -1.07425106451915     -0.35174056699400
  C   3.23994546589936     -2.48872868827438     -0.38617137157197
  C   2.19415813615404     -2.85765509290622      0.69139141352978
  C   2.77963632267521     -4.09799525593580      1.37781258524092
  C   4.28152020426899     -3.82113110967864      1.37788500577877
  C   4.52857557264022     -3.28686697518171     -0.02916049239238
  O   5.64335280851476     -2.38031100504713     -0.10120958660744
  C   5.14419383215981     -1.11956170962063     -0.15410860346715
  C   5.82218328120877      0.03432155017715     -0.05575390715538
  O   7.13674750872254      0.12114188996181      0.20110807960461
  C   7.86585751396049      1.17302359470695     -0.32323473426109
  N   9.07442691714311      1.33732518830480     -0.07131862607542
  O   5.18343628769612      1.20925756148138     -0.16461697436966
  C   3.81511464822950      1.35706416415532     -0.40349646133325
  O   3.38953104112304      2.46398432168789     -0.52033857085120
  H   2.87488086313117     -2.72016881768991     -1.38828077520794
  H   1.20818810048848     -3.02274946449633      0.26253301163710
  H   2.10179841622237     -2.04260939944141      1.41169356985494
  H   2.56440312387176     -4.99210559371770      0.78711340669197
  H   2.37310782216872     -4.25626461953961      2.37549942155985
  H   4.89863962120557     -4.68501473142028      1.61787891110647
  H   4.51455649714675     -3.02608101890824      2.09252146237410
  H   4.73255832609496     -4.09058220291388     -0.73508889949634
  H   7.29668640657390      1.83236749417706     -0.96974573787436
  H   9.42917220847691      0.62216089092976      0.56408714692681
