35
Coordinates from ORCA-job 23429optt
  C   1.11792381943560     -1.36230535403176     -1.83757045642151
  C   2.12030527677592     -2.24874725859869     -1.10453372661154
  C   2.81856131751430     -1.48540268192618      0.03974240360697
  C   2.04947934831519     -1.69224666133692      1.34620468032951
  C   4.36566933014575     -1.65020756809535      0.17202264221620
  C   5.00583741140280     -1.16869069478652     -1.14247195932286
  C   4.82137777373892     -0.71394206316894      1.30954000199849
  C   4.80020386495991     -3.09792186701091      0.43846576711984
  N   3.83515156112807     -4.02061846018087      0.36714029802277
  C   4.11545479365771     -5.29540021461017      0.55390629220870
  O   3.09250352744786     -6.16925608589645      0.45206085941817
  C   5.37303613002552     -5.78368703443524      0.84402110039661
  C   6.40921988129236     -4.86159029590704      0.93223324472360
  N   7.67056753513764     -5.26966226400321      1.25651575535948
  C   6.10797222728457     -3.50060281827851      0.71436403740551
  Cl  7.46434952149724     -2.41147485966295      0.80202781181660
  H   0.55673670569722     -1.92412056096031     -2.58555404293510
  H   1.62535487932182     -0.53937328099491     -2.34551533788312
  H   0.39846754686878     -0.92556908559380     -1.14073733750358
  H   2.84037321619503     -2.65021802390252     -1.81699247182908
  H   1.60742608098205     -3.11585885022363     -0.68760227485192
  H   2.72207612679219     -0.42126969485473     -0.20928335456576
  H   2.17749010103192     -2.70957796642151      1.71467140685800
  H   0.98382626830584     -1.52876629173551      1.17226204760066
  H   2.36052488584998     -0.99741257759764      2.12561977745050
  H   4.68666328117078     -0.14283225973780     -1.34089776719555
  H   4.70726977455300     -1.78772064726240     -1.98751389971874
  H   6.09252940628026     -1.17742526375820     -1.08676335084261
  H   4.24512702866054      0.21229495910592      1.26090172346480
  H   5.87136862452122     -0.45104746400457      1.22827267269642
  H   4.65758323518754     -1.16105376456034      2.29053740209737
  H   2.30327471354590     -5.64923924417268      0.25134990290029
  H   5.53684092703175     -6.84049909463339      0.99958418616600
  H   7.87698253347145     -6.25027471828288      1.18525680526608
  H   8.43647134477320     -4.63727998847929      1.10073516055880
