24
Coordinates from ORCA-job 23422optt
  C   0.99948067810755      0.38680138138490      0.05832322881427
  C   2.40115191832908     -0.10632328371883     -0.15956873834228
  O   3.40724712758741      0.85237564360870      0.32110752915168
  C   3.97072693896051     -0.07421035147983      1.13359785728809
  O   4.94219757002832      0.03026565538781      1.80431020644545
  C   2.96478704881316     -1.16556828331438      0.80029857652684
  C   3.56326103042007     -2.44462660895252      0.24241560558029
  C   2.51414297676909     -3.45670869878136     -0.11948302414052
  C   2.64270261173015     -4.79931506819950      0.19904112736545
  N   1.70671929557011     -5.68485704246636     -0.14863915723132
  C   0.66976383002799     -5.24199512009944     -0.79255885173838
  Cl  -0.57298027040596     -6.35750294476552     -1.26658327081805
  C   0.51458819518679     -3.87963663814428     -1.11964509703711
  O   -0.54917402880567     -3.40973794818944     -1.77516331602925
  N   1.43654891139692     -3.01324712007180     -0.77632283507073
  H   0.82093201213906      1.29461585908737     -0.51720276797471
  H   0.83048923300979      0.60485560806788      1.11377030615438
  H   0.29670867757394     -0.38048863126281     -0.26731944882421
  H   2.60009833391980     -0.33021747441427     -1.20732256068076
  H   2.29800488079977     -1.36958869767991      1.63991104836387
  H   4.25520283309474     -2.86975708862746      0.97102214739739
  H   4.15007650598147     -2.20756809853631     -0.65085160192614
  H   3.50209977776051     -5.17408500095406      0.73956911366543
  H   -1.15777608799461     -4.13448004787853     -1.97370607693968
