25
Coordinates from ORCA-job 23434optt
  C   1.62190094765409     -1.24687405962563      3.02301985761768
  C   1.79647136993033     -1.14605038340916      1.53569175218664
  O   1.52098701467988      0.17488379025191      1.01663796310536
  C   2.65563093783727      0.10946283853840      0.15440340361210
  C   3.21653383923654     -1.07747936042131      0.94535008358354
  N   3.67599789681113     -2.21284981632229      0.18373286173418
  C   3.48212375529750     -3.51964578230234      0.58731078255034
  O   2.90574636677586     -3.90888089683129      1.55563332725065
  O   4.08291263550712     -4.33684359967035     -0.34078904833207
  C   4.68035167971318     -3.54537930375576     -1.27845809865053
  C   4.44926380927907     -2.20438920216897     -0.95980077742754
  C   4.98636939704837     -1.22724513086164     -1.76281885826812
  C   5.71732725181212     -1.69813735338257     -2.85752999321261
  Cl  6.43149832481600     -0.56396046178616     -3.94623164294155
  C   5.87852309424404     -3.05403333714220     -3.08937221075166
  N   5.35507397535614     -3.99514146639417     -2.28747262407790
  H   0.58079235126327     -1.05938829255692      3.28662343273473
  H   2.24531945876010     -0.50981722396481      3.53030670127972
  H   1.89630137207167     -2.24857201602686      3.35271907128806
  H   1.19280464747481     -1.89148092914244      1.00867262670243
  H   3.23153419228664      1.03484156767404      0.15280643043469
  H   2.37395691539297     -0.16310005382183     -0.86860898202354
  H   3.95752737504115     -0.78550251272446      1.69183529212944
  H   4.86721456120911     -0.16833011066015     -1.58129673024011
  H   6.44883683050161     -3.39408690349301     -3.94336462028395
