24
Coordinates from ORCA-job 23438optt
  C   1.29531380258158      0.94193542643203     -0.43029550340310
  C   2.43866514146581      0.06147798371687      0.07981458636222
  C   2.92194173428215     -0.88744255941360     -0.97410104264089
  C   2.51133881877077     -2.17145379318195     -1.05161194343117
  N   1.58893969016803     -2.67248801472753     -0.12289259212824
  C   1.21876434737028     -3.86955286343106     -0.21674474346605
  O   1.62032504029143     -4.79152976243991     -1.13928876698908
  C   2.51876272773777     -4.35350603467494     -2.05956606593839
  Cl  2.93810859123490     -5.59377858617565     -3.14333618974460
  C   2.99032635069131     -3.09697124909301     -2.08166464579034
  C   3.93542523048486     -2.60426291081954     -3.05540628067328
  C   4.33719919218450     -1.32962152358194     -3.00646273496381
  C   3.86196869627750     -0.37982042766855     -1.98981014510348
  N   4.22049989600879      0.84771534340022     -1.94543300315796
  C   0.26049170149038     -4.43493866693556      0.70583018563666
  N   -0.49930297867681     -4.87466167366482      1.44068946935834
  H   0.98745326790206      1.64723490883740      0.34169449320814
  H   0.43201567316001      0.33155120014611     -0.69875269145304
  H   1.61265779112071      1.50846017910035     -1.30513506962143
  H   2.11216674959794     -0.50179555200950      0.95189848644663
  H   3.27679162905747      0.69671883259523      0.36707683710911
  H   4.30125130232877     -3.28019856968214     -3.81641043820040
  H   5.04268729436437     -0.95029440489029     -3.73696703631720
  H   4.86920831010539      1.06522271816180     -2.70112516509864
