24
Coordinates from ORCA-job 2344optt
  Br  1.22345165606133      0.39343609440211      0.87157520866503
  C   3.00852065499344      0.14984015703203      0.34574740990005
  C   3.51723882273015     -1.06414858867512      0.03228097975831
  C   2.82900475613519     -2.40534854788518      0.03811559183896
  C   3.31016265859269     -3.24206323508976      1.25155730686751
  C   4.58685061882318     -4.01186127979547      0.78856451914432
  C   4.84577564077506     -3.59105142507965     -0.67723633123351
  C   3.42158222535523     -3.22506801701506     -1.12489790383912
  O   2.86523491650915     -3.56083699849252     -2.12376109997647
  C   5.60194817764131     -2.29184309562798     -0.70888703789445
  N   6.85047452200284     -2.12157314186837     -1.03428847460546
  S   7.25488571284519     -0.50825381038905     -0.90439598852477
  C   5.69010798897663     -0.01248741396352     -0.38993856707493
  N   5.16674515990320      1.19728755705072     -0.07762578463885
  C   3.82419945064425      1.38029395707439      0.30545981883387
  O   3.42871543467685      2.48938553869535      0.56841070047170
  C   4.89326894914223     -1.12417183594305     -0.32892682826690
  H   1.75022942009077     -2.30996766467494     -0.03896928807804
  H   2.52623416814845     -3.94304842067205      1.53279786232668
  H   3.50622780094644     -2.60520458291502      2.11198536201574
  H   4.41480197784645     -5.08645009817141      0.82850092960695
  H   5.44751790860674     -3.79004048868239      1.41619529504463
  H   5.30645072384886     -4.35113721593456     -1.30094788637253
  H   5.70737065470432      2.05031255662048     -0.11431579396872
