28
Coordinates from ORCA-job 23458optt
  C   1.59691585237093     -0.08110217342319      1.74572138231496
  C   2.72572563152983      0.23127924917006      0.83602761940369
  C   3.44072229662503      1.35570958484439      0.72138544445145
  Cl  3.13149534314030      2.72841481966208      1.71784947190212
  N   4.46120977134887      1.51254893390361     -0.19372212673459
  C   4.73796836656237      0.53370387734705     -0.95831715202098
  O   5.69737118242802      0.61364001742224     -1.87297561598065
  C   4.03267480086717     -0.76351070983897     -0.90780385293173
  O   3.03358097421981     -0.82514070093891      0.01552641533477
  N   4.32144224543419     -1.73630274263227     -1.64713615451295
  C   3.55704909549546     -2.96169146863540     -1.49353660984908
  C   4.05808329689247     -4.00298815572075     -2.47679101257689
  N   5.47607697484636     -4.19116114224892     -2.29202087925129
  C   6.15708652579377     -5.18829958837506     -2.94733688702344
  N   5.67752657730674     -6.15639842279673     -3.62272805850961
  C   7.59684720206931     -5.09356051543127     -2.78437538961193
  C   8.77928670307792     -4.97911632235688     -2.64118252314675
  H   1.36439573110485      0.77007360590513      2.37778052042651
  H   1.85025697914731     -0.93731730599175      2.37343097203202
  H   0.71421204060345     -0.34654826102625      1.16110934227033
  H   6.08172291513222      1.50034027746980     -1.81364295053464
  H   2.49202737111240     -2.77518926008780     -1.66079876830194
  H   3.66267690041271     -3.34054694525327     -0.47153638278663
  H   3.82496725019476     -3.69462040917058     -3.50367527153423
  H   3.54111616151353     -4.94569459900802     -2.28339232454053
  H   5.99587072636163     -3.34824624373227     -2.09109782625539
  H   4.66347551127015     -6.10180511784650     -3.68817848499643
  H   9.83321557313832     -4.89447028120953     -2.52358289703615
