34
Coordinates from ORCA-job 23452optt
  C   0.84194157313069      0.24567766233225     -0.05489642647678
  C   2.34866066481908      0.46052002222922     -0.01399874743031
  C   2.93027933803908      0.43535610540536      1.40215781142507
  N   2.68918482585841     -0.80966642181071      2.13162384790968
  C   4.43622023009333      0.68696837572256      1.37656414348521
  C   5.01477193251539      0.98876509684659      2.76381324175488
  C   6.52520797786870      0.93487605348099      2.76151994721977
  C   7.22202931938422      2.03572875665887      2.40068982202438
  O   6.63775145465552      3.21734623573628      2.06569179346921
  C   8.68267201893881      2.15977232534352      2.31639408128726
  N   9.33039462417189      3.20572066173152      2.01450019477491
  S   9.66289221192373      0.73628316058928      2.65509069256810
  C   8.49803489028477     -0.47952236151391      3.05323009441578
  Cl  9.31064711503956     -1.95902304590832      3.45915465320242
  C   7.16061028696021     -0.34459931198020      3.07548558422043
  C   6.27423479573047     -1.49928271251410      3.48405858428681
  O   5.78577823698725     -1.34487942329880      4.80766194916967
  H   0.46102452344032      0.31766780505846     -1.07336621531906
  H   0.32601865084001      0.99620680531623      0.54833154594906
  H   0.56971285793197     -0.73820430970165      0.32950229249006
  H   2.59507855830560      1.41965344394363     -0.47755428070929
  H   2.85387630503465     -0.30951534276096     -0.60837855047859
  H   2.45402718135099      1.23460356640854      1.98260351744108
  H   2.89963122231040     -1.60839854149391      1.54035461319561
  H   1.72100666468352     -0.89662910782698      2.41337237942983
  H   4.67197946154781      1.49976361663516      0.68257510897073
  H   4.92575743181655     -0.20524744434365      0.96925279986538
  H   4.61111343442985      0.28107659023654      3.48459965839895
  H   4.66036369119477      1.96626585694726      3.10909319111494
  H   5.68027495778539      3.14143935079998      2.11744069363897
  H   8.69201586593054      3.97677731283048      1.82752965562620
  H   6.80695038464424     -2.44255536432338      3.37439105585041
  H   5.38812088129308     -1.54269074400490      2.85074528587182
  H   6.53873643105908     -1.31125467277126      5.40676598135737
