26
Coordinates from ORCA-job 23465optt
  C   2.06873142802336     -2.02391118870115      0.86316785929721
  C   2.97090980306940     -0.92670981769995      0.32963299168852
  N   3.56766488520250     -1.33039123074865     -0.92627171092484
  C   4.40593691379137     -0.49039307583627     -1.61823862126163
  N   4.83421772601421      0.64900762147374     -1.24109723221702
  C   4.87008833697702     -1.00907653210041     -2.92713394575503
  C   5.30586583116300     -0.24727521905677     -3.95766778751736
  C   5.68062101616520     -1.03952345779987     -5.08325862294667
  C   5.51223964178669     -2.41165353406121     -4.86437308047129
  S   4.90876644638821     -2.71491014091077     -3.26952776847408
  N   5.78165843071909     -3.38219890613076     -5.73443746990069
  C   6.24005193140375     -3.00286052876436     -6.89778507937327
  Cl  6.59521828108984     -4.24618914250721     -8.04034347344612
  C   6.45222953409102     -1.66006640341953     -7.25813561202732
  Cl  7.05116480024601     -1.20152616938737     -8.80686377850606
  C   6.17209711681927     -0.65852048203186     -6.33896562143291
  O   6.34660189516603      0.64096890336148     -6.59218358669759
  H   1.62899763483633     -1.72322065140797      1.81281125060797
  H   2.63154952988820     -2.94428474319727      1.01857088410206
  H   1.25412046311647     -2.22913829155511      0.16608704877598
  H   3.77326139921840     -0.72150763943476      1.04335146895757
  H   2.40171011122445      0.00292053330812      0.20564195944087
  H   3.05514727738438     -2.01019635566509     -1.46724142269885
  H   4.42580927189162      0.94037008992454     -0.35680715311718
  H   5.35545082103333      0.82972601314798     -3.90496662395011
  H   6.68888947329076      0.75756034920048     -7.48996487215210
