29
Coordinates from ORCA-job 23463optt
  C   1.02949006579845      0.49490208785535      0.56508924456849
  C   2.48423710420717      0.26717845835127      0.26917266586219
  C   3.38350017447080      1.29287278208136      0.31915869622544
  Cl  2.95350430461000      2.93721940772929      0.63296671842095
  N   4.70152448853143      1.13764659389084      0.13155644124767
  N   5.29644141488575     -0.05403644875968     -0.06602523666272
  C   4.52104247368093     -1.08572704445797     -0.12293042252396
  N   5.07467976226546     -2.31501354744411     -0.25920356305877
  C   3.03016301402455     -1.04617468727828     -0.04041247890755
  N   2.47477668699478     -2.18427933383226     -0.25368277053324
  C   1.05529982171382     -2.47411080751007     -0.33563582685983
  C   0.55635322541771     -2.26212377722495     -1.76713520827209
  N   1.26771072155047     -3.12247166986877     -2.70571146543637
  C   0.87822259733610     -3.91765232765215      0.12127221322585
  O   1.29947849227831     -4.07161594759149      1.46203086682787
  H   0.83891399053840      1.54166365362564      0.78234778452775
  H   0.71816071743410     -0.08635528061640      1.43373004164675
  H   0.39549879098574      0.20826301134451     -0.27418830711595
  H   5.32186805360652      1.92758274415971      0.17883387994137
  H   6.04501216785703     -2.37159301815275     -0.51377228961223
  H   4.43329998594620     -3.04536388643629     -0.52723405506723
  H   0.45116295762349     -1.85631942449944      0.32877144057907
  H   0.64979154486447     -1.19325305362208     -2.00407476795753
  H   -0.50655185194762     -2.51444779702660     -1.80254553080426
  H   2.26242231875296     -2.93224232598353     -2.65438799607843
  H   0.96995891147579     -2.94314782503058     -3.65596746924284
  H   1.43240065257673     -4.58000308935354     -0.54797729671914
  H   -0.17682805709612     -4.19338922768642      0.08798055713949
  H   2.20946546961654     -3.75400821901058      1.50297413463927
