32
Coordinates from ORCA-job 23478optt
  C   2.84703364696131      1.08671245712510      1.41519245704362
  C   2.43173835040244      0.13963754333741      0.29832853051119
  C   2.96140566166012     -1.27641357857221      0.50101284695245
  C   2.41936251436563     -2.23423113551952     -0.55747976287880
  N   4.41433182534072     -1.25349936871541      0.41311462788558
  C   5.11817555152215     -2.04969132848400      1.10552036291207
  S   4.41551151931695     -3.21625689197516      2.24214637412646
  N   5.66968601816012     -4.04125610110278      2.91391121135713
  C   6.87972657463198     -3.84771511348608      2.59778278371848
  Cl  8.03529967696931     -4.83396142530245      3.45804206162753
  C   7.42513454457256     -2.90886513265378      1.62474546841705
  C   8.90182509163892     -2.88896326684670      1.37729816036352
  C   6.58804691327021     -2.06911012680368      0.97044487837930
  O   7.11077132713111     -1.24918033204291      0.01898487725912
  C   6.95962750636248      0.14417670714643      0.16487175352020
  C   7.77510413038510      0.71668750816709      1.29323869410375
  O   8.46073673542390      0.07123671285537      2.03269492108619
  H   2.47093368793042      2.09543814488037      1.24397105558987
  H   3.93412062121427      1.13991048299841      1.49463577534049
  H   2.46225542014883      0.74355452408662      2.37779735866239
  H   2.80002697075583      0.50179049281566     -0.66570991075590
  H   1.34169063062331      0.09674564663479      0.23261410865796
  H   2.62960670857661     -1.61562902402056      1.49393850482980
  H   2.71756287827349     -1.88975284406253     -1.54845669084662
  H   1.33046639007478     -2.27400282953690     -0.51215410824550
  H   2.80927616890594     -3.24252957022785     -0.41278102581114
  H   9.42493221614635     -2.57078648401539      2.27973828798375
  H   9.14271556477173     -2.20043966085241      0.57635257287685
  H   9.25340441470556     -3.88936155483948      1.12396945563371
  H   5.91150114721756      0.42854260017922      0.29258918136293
  H   7.30904637655320      0.59139074328796     -0.76920394425357
  H   7.68994321598696      1.81682220554537      1.39884913259012
