25
Coordinates from ORCA-job 23474optt
  C   1.01122966621092      0.37901138342355     -0.81168414544147
  C   2.36728112231511      0.20810774758408     -0.20067728874376
  C   3.22470450478717      1.22491407091911     -0.02483082785612
  C   4.54489951386581      1.03540497600197      0.53273645393841
  N   5.30295184886894      2.19173531870298      0.60574242543216
  C   6.56908170974203      2.19308155752246      0.47933137790383
  S   7.51899333395010      0.71742850873827      0.10733413983832
  C   8.93362322930013      1.47059729578771     -0.57325433552089
  C   9.82702132094220      0.52464210438289     -1.31170575145162
  N   9.25620219543652      2.71160988601287     -0.49459489780001
  C   8.43723365850849      3.54408225422622      0.22267283102404
  Cl  9.17732019638017      5.06423408565574      0.56349870465448
  N   7.25142042865303      3.37176377612459      0.65023800622008
  N   5.04188253070356     -0.07095462588302      0.97679432444635
  C   4.36585454528734     -1.27579601967064      0.97362941220256
  N   4.82479525500747     -2.36107606401728      1.43578963129044
  S   2.73388826270154     -1.41870306718507      0.26112999820714
  H   0.83295265192256      1.42508860564557     -1.05248088828554
  H   0.23681387989962      0.03471833576286     -0.12462368280405
  H   0.92944556784249     -0.21466932888211     -1.72381126858222
  H   2.95439965641469      2.23058614546512     -0.31477404073818
  H   9.89620720746425     -0.43188454877704     -0.79281039309365
  H   10.81187750736416      0.97009369733130     -1.42365379480607
  H   9.40230987289577      0.33434480166257     -2.29956103482595
  H   5.75561033353580     -2.19536089653469      1.81756504479172
