24
Coordinates from ORCA-job 2347optt
  Br  0.98822116058853     -0.32094091141501     -0.39995429176139
  C   2.84302348009620     -0.27434768062073     -0.10944158005184
  C   3.56855014403775     -1.31241885377254      0.36792050804663
  C   4.99705744643885     -1.17051968728048      0.51168086731501
  C   5.74909040046023     -0.09607139897357      0.21801948609152
  C   7.21910979480740     -0.35198644252945      0.39517418022808
  C   7.26991089647100     -1.75613498758337      1.02771587031640
  C   5.86157024898056     -2.33856400347381      0.90547228633189
  O   5.83411328130054     -3.29225627804136     -0.17606981178484
  C   4.66742189442710     -3.85482656047155     -0.49117169226883
  O   4.50014057425568     -4.49631927536728     -1.46925415364717
  O   3.69497553933653     -3.74697759161493      0.47902124153527
  C   2.97313864586553     -2.60396146162292      0.78577316956905
  N   1.90950294796184     -2.69682443624043      1.43714327049122
  C   5.23214220519720      1.16187633334099     -0.29415478166647
  N   5.87297931417859      2.21242377744103     -0.59607328689943
  S   3.47600113006035      1.26550629257769     -0.56647645622174
  H   7.68962572703342      0.39876187821787      1.03361777304064
  H   7.72403183720641     -0.30830722462727     -0.57381683716754
  H   7.53204033104075     -1.68496683434489      2.08197461629789
  H   7.99161636979435     -2.41429119933857      0.54850178434874
  H   5.52910709584872     -2.84293852130889      1.81291337382482
  H   1.66744012318934     -3.67180683878248      1.61040546913044
  H   6.87118941142305      2.10389190583198     -0.42492100509833
