34
Coordinates from ORCA-job 23470optt
  C   1.17162630870737      0.40970466746013      0.00768164139463
  C   2.64049827341666      0.03256002978914     -0.13230601912118
  C   2.88453170766238     -1.44897546312048     -0.45404225069774
  C   2.28819707594348     -2.36513905511967      0.60707678882933
  O   2.33650618374299     -1.77924109728910     -1.72256806853663
  C   4.40417614282029     -1.62081475869116     -0.60787863956540
  N   4.80332780847933     -2.95390927028621     -1.06029152665433
  C   4.91427115013785     -3.13519511981162     -2.46824514940485
  O   4.84076938053068     -2.19647685484549     -3.22801788168519
  C   5.12256213130266     -4.50783136929358     -2.87731739638366
  C   5.14744639906952     -4.75202301033695     -4.35013643510419
  O   5.31626032215545     -6.12064188548741     -4.60003092884500
  C   5.34722327419395     -6.40781302994989     -5.97551007577865
  C   5.29501765646315     -5.46194708906851     -1.94196618397125
  N   5.32476946208663     -5.19997579569810     -0.59519276414826
  C   5.09213872953683     -3.99729543278730     -0.23588200106769
  Cl  5.22328357001041     -3.65625069239002      1.46159566310747
  H   1.06679930131819      1.48695459340017      0.13329477282412
  H   0.70677065213864     -0.06749025771764      0.87060882788935
  H   0.60704485786782      0.13426684391976     -0.88544944604640
  H   3.17586641201244      0.28487524812851      0.78764751518775
  H   3.08879385230655      0.61651749780254     -0.93936883990324
  H   1.20148888416323     -2.25919968965734      0.61462868697473
  H   2.65910456478797     -2.12242178571870      1.60305614582735
  H   2.51748354435485     -3.40879378574192      0.38977899863132
  H   1.38580502845872     -1.89408166841024     -1.63122708029226
  H   4.90062517856795     -1.39515501335011      0.33148998724405
  H   4.74787098603892     -0.93087923674789     -1.37523978695632
  H   5.95882761767417     -4.16624866308152     -4.80383536945143
  H   4.21295876492457     -4.38029851539941     -4.79348456850530
  H   5.47093219172808     -7.48287532693191     -6.08334822384593
  H   6.18304788809210     -5.89737898817879     -6.46663350003254
  H   4.41485542514606     -6.10065403840992     -6.46189760846082
  H   5.45011927416005     -6.49387198697928     -2.22598928345179
