29
Coordinates from ORCA-job 23475optt
  C   1.85336498473836      1.01526899421044      0.00597613072495
  C   2.47039399778442     -0.34215508750682      0.32712547105868
  C   1.41657521203267     -1.31319148889568      0.84361181586748
  N   3.04478713454667     -0.89198385065091     -0.88974314018850
  C   4.28125825936907     -0.81348695122201     -1.11545578938874
  C   5.33811233055898     -0.15954986129505     -0.25982288390149
  N   4.81234075949316     -1.38626082873152     -2.28597970646407
  C   4.07306523209668     -2.03769123870745     -3.24099639823064
  C   3.19293310877606     -3.05439804808270     -3.07355643746221
  Cl  2.91726276227922     -3.81564520768008     -1.55735035325450
  C   2.49544934404510     -3.58082303942082     -4.22339000639563
  O   1.56644913246295     -4.53928305733837     -4.08140929354576
  N   2.71507074747403     -3.17536230720674     -5.42098947671206
  N   3.65963094630254     -2.22751620597674     -5.57500308103929
  C   4.38500180407985     -1.60452854531319     -4.61470058030038
  O   5.23978180934876     -0.76352223679014     -4.85482702893345
  H   1.38033524094624      1.44135926755304      0.89165865164370
  H   1.09832635034682      0.89928282504620     -0.77313251660745
  H   2.60881158639528      1.71378717334885     -0.35678832481898
  H   3.22785097597304     -0.20987250596721      1.10866154817540
  H   0.65551386293852     -1.46997422736762      0.07739633506905
  H   0.93816168021239     -0.92059699328497      1.74205312600883
  H   1.86359679136984     -2.27897248515122      1.08049988548636
  H   4.97146320174906      0.77277088400150      0.16396749530367
  H   6.23682731583917      0.04781095079591     -0.83759538322487
  H   5.61471977444557     -0.82466426647354      0.55996428280272
  H   5.56092719086483     -0.85406592908619     -2.71909506666844
  H   1.48682068693001     -4.77845959702615     -3.14969621937734
  H   3.82516777660060     -1.94627613578078     -6.53038305562703
