30
Coordinates from ORCA-job 23487optt
  C   0.89342160847296     -0.05757289448006     -0.01191584153109
  C   2.37814562470257      0.19881328067379      0.02173919525918
  C   3.36179208932750     -0.84425657714118     -0.55931551123978
  C   4.44156708787674     -1.86136614151627     -0.19416431518283
  C   5.40338938310693     -1.52606712182935     -1.33931241700024
  C   5.18275981346973     -0.24531929650396     -1.89296280337052
  C   4.16077259184512      0.36607695588862     -0.96956935657725
  N   2.90573901108993      1.12901331044481     -1.03897504277853
  C   2.95886528589563      2.53136718282187     -0.68781608681959
  C   5.89942939649649      0.20839713236437     -2.98128998695736
  C   5.68647317387787      1.55936217050339     -3.58895802002466
  C   6.84213837855895     -0.70876347908527     -3.47192830664408
  Cl  7.78167274019244     -0.26082181543371     -4.86380098989390
  N   7.09038134731534     -1.89432155265720     -2.97122811990884
  C   6.39046856911158     -2.28889201891737     -1.92078763785468
  Cl  6.75251947790549     -3.86328149917380     -1.28979485464553
  H   0.61813968228143     -0.80265682382298      0.73599171840516
  H   0.59668787866558     -0.41689111653405     -0.99718521188514
  H   0.33630436707592      0.85628906702866      0.20174754121577
  H   2.70676497681945      0.54717746224515      1.01148124617842
  H   2.87433354089690     -1.20823418789974     -1.46821805733159
  H   4.13765123430670     -2.90614994533445     -0.21369196876954
  H   4.90980261998110     -1.65485282794026      0.77254439994934
  H   4.73329874107293      0.72280875059607     -0.09123441645372
  H   3.42704590462552      3.10095842973910     -1.49104953392657
  H   3.52186741435059      2.70679268693695      0.24168174699062
  H   1.94474029924746      2.91028763944065     -0.55547100767034
  H   4.89832976376875      2.08950557187368     -3.05745619766557
  H   5.39996431681351      1.47346378781752     -4.63792429098761
  H   6.60253368084888      2.15113386989504     -3.55413587287951
