35
Coordinates from ORCA-job 23482optt
  C   1.09281131010319      0.01104188505838      0.04097181720852
  C   2.62056384957449     -0.02395028327085     -0.01279522260485
  C   3.16301757890212      1.16425213133829      0.80415387765165
  O   2.96631906017324      0.99956620240524      2.20397064597493
  C   4.59843150472851      1.60596965928315      0.54360191302877
  O   4.82756022589900      2.86370265159474      1.14436009919469
  C   3.14106552190169     -1.40967805098916      0.44565060704932
  N   2.56744946503867     -2.54761926422813     -0.27640927768641
  C   4.64762805901954     -1.51841569332288      0.36157865461516
  C   5.27510813685031     -1.42079318782927     -0.87875874205213
  C   6.64754756995497     -1.49768527221521     -1.05220017696749
  C   7.28630472324723     -1.37838269375899     -2.40642681907214
  C   7.43605545586293     -1.68774780645966      0.08629500842011
  O   8.78960882145549     -1.77426627933114      0.02394752264097
  C   6.85540807030752     -1.79339981972973      1.33885145855802
  C   5.47812878716980     -1.71093963454617      1.45891790777053
  Cl  4.82610192501550     -1.80823257408660      3.07368122593126
  H   0.72117852548085      0.98852641124529     -0.26692391278040
  H   0.74905592685847     -0.16959785616116      1.06192466127397
  H   0.64243455811311     -0.73114581443943     -0.61682030342723
  H   2.93870006502378      0.12890409362933     -1.05163860770791
  H   2.54606316795994      2.03024069958230      0.54832332905617
  H   3.54178701073148      0.29446732536046      2.52923748426347
  H   4.76881513133112      1.72567103265603     -0.52821064079846
  H   5.31563832333169      0.86970039604519      0.91956863838188
  H   4.48514020231187      2.81260796510261      2.04460831447611
  H   2.84027019050098     -1.53953741346259      1.48544630992313
  H   2.70080806082701     -2.45225962351023     -1.27746196358923
  H   1.57194546710699     -2.61807070853011     -0.10893702177317
  H   4.66108229194235     -1.26681034629165     -1.76051201093905
  H   6.53103610151710     -1.23947193042937     -3.17743125583334
  H   7.85569015958038     -2.27612232532832     -2.66452473707164
  H   7.96585994108298     -0.52244758225684     -2.45569851458323
  H   9.08871877027369     -1.68957473323879     -0.88682169335486
  H   7.48266604082191     -1.93450155988473      2.20748142482287
