29
Coordinates from ORCA-job 23494optt
  C   1.01642683837326     -0.71154123492082      2.07568086774859
  C   2.53252407961839     -0.83243771876126      2.00887935118156
  C   3.00522629988025     -1.40025729149048      0.66916296243855
  C   4.49131089422012     -1.46879091326117      0.56575188170147
  C   5.30759966408435     -2.54338986955394      0.75192601277348
  C   4.98992257795357     -3.95295510170212      1.10826222754978
  N   6.60347249666592     -2.04151692220255      0.61023048797658
  C   6.47380599350619     -0.69844578191015      0.32855024887717
  N   5.23575626889069     -0.33327481390146      0.29110492148793
  C   7.78891282189371     -2.77986532837033      0.58046698358911
  C   8.92629635935342     -2.33904851903706      1.19662412008018
  Cl  8.94865302846322     -0.94326416713773      2.19537100336748
  C   10.22501849753281     -3.00394754058650      1.10803041258506
  O   11.23990469904767     -2.62605060073755      1.62080108514720
  S   10.29209646079857     -4.51989525140491      0.15446310513487
  C   8.65550989707514     -4.73417916463140     -0.32002669685359
  N   7.66473139244486     -3.95896087234748     -0.11301182198999
  H   0.68713342245117     -0.32010471050542      3.03836535475473
  H   0.54055982308673     -1.68366729144783      1.92891780844738
  H   0.64659239884602     -0.04162068962674      1.29720351735571
  H   2.89521153650917     -1.47710175783279      2.81448524600148
  H   2.99821411049584      0.14442163860603      2.15696026147272
  H   2.63466463540951     -0.76593752758163     -0.14029053288940
  H   2.57292865750738     -2.39274530052881      0.51835697076203
  H   3.96512115503500     -4.00149394980263      1.47291794861745
  H   5.64484965035848     -4.32133413316993      1.89976182528468
  H   5.09254214711750     -4.62377751926987      0.25583525341362
  H   7.33217982410556     -0.07833490141298      0.13004453265634
  H   8.48183436927534     -5.65548276547040     -0.86982533867220
