22
Coordinates from ORCA-job 23507optt
  Cl  1.27215335379083      0.12436022569756      0.86263268097362
  C   2.91434587909482      0.04512492631209      0.42570627453449
  C   3.52951444730584     -1.11188165738581      0.18377384637009
  N   4.86561947073214     -1.14481388860241     -0.17258367940876
  C   5.65290459644020     -0.03585221369388     -0.30208218166153
  O   6.81749360907737     -0.09102452503410     -0.61027183037434
  C   4.95713313529871      1.26175875997529     -0.03130911368496
  C   5.64608350396820      2.42216546254486     -0.13653395197893
  C   4.98686664507867      3.67958034509705      0.10871174950828
  O   5.50157160123341      4.78072495812973      0.01348013020982
  C   3.56884825466285      3.51406041046691      0.49710599892705
  N   2.95789235932674      2.38167084069048      0.58025842740333
  N   3.62685613797110      1.25497591879937      0.31917403965501
  C   2.78759332984128      4.74289754869126      0.78985967291215
  C   1.44477043358041      4.91942537614178      0.21282415242542
  O   1.62246870219966      4.59019590630568      1.57080967241385
  H   3.00867573652865     -2.05154797995962      0.25932722704894
  H   5.32040166597031     -2.02791991001428     -0.35156932695806
  H   6.68955084638893      2.38798003491237     -0.41464556537826
  H   3.39362248918828      5.61518252715469      0.99940029193577
  H   1.04752254266373      4.11922281614313     -0.40272603091732
  H   1.08211125965781      5.92171411762784      0.01565751604436
