27
Coordinates from ORCA-job 23500optt
  Cl  1.05776023813608     -2.14618171298200      1.71798587320612
  C   2.77594419552867     -1.95712519263566      1.73691846394776
  N   3.38821837962855     -2.24904267497790      2.80495261171847
  S   5.02760734249897     -2.14205068163244      2.95766780372738
  C   5.59757203369255     -1.63307947682319      1.37325875173109
  C   4.53598440052807     -1.32681122297355      0.38954913313215
  N   3.27732582321285     -1.47504169151091      0.53501747641778
  N   6.84482401552300     -1.55218861995336      1.19222538204417
  C   7.39115576222529     -1.08945249943056     -0.07334931293965
  C   8.92399600178783     -1.09392333242791      0.00222417715809
  C   9.48038853155766     -2.49813573121060      0.23452831750446
  C   9.45175304927580     -3.30361131276098     -1.05711537651295
  C   10.22927938436923     -2.55688913366670     -2.11803765833693
  O   9.73318532722969     -1.23147123499235     -2.32878838318269
  C   9.44587570015183     -0.44013960861352     -1.25998096983869
  N   9.48563145738375      0.81553637209803     -1.35081822574704
  H   4.87017517427591     -0.93315471574330     -0.56762407005235
  H   7.06592029470323     -0.06718558917282     -0.28780747339472
  H   7.05782431488548     -1.72552047275079     -0.90211406444982
  H   9.19737524869932     -0.43826994826632      0.82808529071393
  H   8.90588486189626     -2.98064771341364      1.02557505206958
  H   10.51357618374285     -2.42541245750784      0.58438891406506
  H   8.42541833216186     -3.46183447211877     -1.39804760880884
  H   9.89906018680436     -4.28871949269948     -0.91474925118901
  H   10.16498113686830     -3.03921487494943     -3.09142383748245
  H   11.28505044701717     -2.48960192780733     -1.83515221623524
  H   9.80723217621501      1.09516941892342     -2.27736879926564
