27
Coordinates from ORCA-job 23509optt
  C   1.52409045390435     -0.49538008472230     -0.23259804028235
  C   2.30080524051799      0.61312569597945      0.39741804231406
  O   2.30364091174960      1.74743612288572     -0.02929779502037
  C   3.14790973883520      0.28550247867900      1.63061744604174
  O   2.79425813716827     -0.93883267908092      2.19313384118368
  C   4.61998936703059      0.32359631640914      1.24144631487314
  C   5.26483698306486      1.45147231318662      0.87876988176120
  O   4.71587777369743      2.67179992722555      0.76773810957071
  C   6.70209965575248      1.41698450261323      0.61461715949689
  N   7.43601398148438      2.40858288235672      0.32334448716697
  N   7.27115360213835      0.12550293167993      0.70380301432669
  C   8.71073288191491      0.02067834029932      0.43900437639390
  C   9.50065524421517      0.02677064222378      1.66853217356726
  C   10.15140185577259      0.02821388854882      2.67212509069533
  C   6.50808977874943     -0.93722974690992      1.07179996788364
  Cl  7.30342689643156     -2.46275878348157      1.19709668827832
  N   5.25996243118733     -0.89333471844081      1.32774568503478
  H   1.03517917896399     -0.13808425753872     -1.13415600625769
  H   0.79757536646266     -0.87770425436394      0.48556105525743
  H   2.19876954687830     -1.32549910885108     -0.45235774342590
  H   2.96278123040780      1.09564554237166      2.34742410925558
  H   3.56219463157405     -1.52713028663855      2.11085025201464
  H   3.76122334364026      2.58995780006581      0.56177746222201
  H   6.86814569876425      3.25019108464106      0.27626702652652
  H   8.96798987112776      0.88739239464145     -0.16678533461504
  H   8.90037959605048     -0.88695125250034     -0.12883450817789
  H   10.73181660251590      0.03505230872092      3.56395724391473
