24
Coordinates from ORCA-job 23512optt
  C   1.42898403749468      0.34890075260997     -0.21582585514787
  C   2.83909109043151      0.03662376038277      0.15573794807773
  C   3.39373844755756     -1.20018744486282      0.20073978515040
  Cl  2.41224151374152     -2.57726415294946     -0.10466992283029
  C   4.85608401471744     -1.50637041518604      0.41325743472702
  O   5.29062254112914     -2.62759879841837      0.35508008423967
  C   5.63774473592211     -0.27456496010647      0.58242023668453
  C   4.94475136332957      0.85646989711203      0.75549509643943
  C   5.51662851639096      2.15175522190310      0.34739617718071
  C   4.09629293493973      2.31359578063212     -0.29821922644136
  N   3.63387138777964      1.11971959684213      0.53728572936843
  C   6.81132281278020      1.68954859528671     -0.36297869305416
  C   6.72262122419038      1.74083660022735     -1.81398345427040
  C   6.62169633563041      1.74679808590062     -3.00728079353236
  C   6.96876052087428      0.15319615509156      0.05988137058610
  O   7.95246393265776     -0.48108116266945     -0.15069600421205
  H   1.06200315604507     -0.34256289189128     -0.96987250615254
  H   1.36191239436511      1.36980430323597     -0.59321089700821
  H   0.77989031773546      0.27101252604475      0.65903202754575
  H   5.69652519080856      2.87911332840927      1.13420971617403
  H   4.09075084014615      2.06061595336344     -1.35772545288742
  H   3.55070967403269      3.22747820149554     -0.08537924049305
  H   7.68943343188414      2.24003723237208     -0.02533479109935
  H   6.55685958541586      1.74612383517446     -4.06935876904474
