27
Coordinates from ORCA-job 23516optt
  C   2.74024471440818     -1.43678423735323      0.57213182655433
  C   2.47501050174015     -0.07650018943441     -0.06025268856152
  C   3.33548560448556      0.06727406331414     -1.32715521695923
  N   1.03353619386246      0.01250732416116     -0.31971039992160
  C   2.84657475567419      1.04389935987120      0.90914053457184
  N   3.53390728986056      0.73060101316314      1.97827967546442
  C   3.89562472289789      1.66447527822256      2.86424087761643
  Cl  4.80017472755522      1.10152573904729      4.23199621799976
  C   3.59388303899987      2.99005422660164      2.74920025137175
  C   2.87161117234838      3.37106258853129      1.60520069486184
  C   2.49032337652732      2.40960478658648      0.65729375104012
  N   1.81552567050996      2.77706313132012     -0.46317614184622
  C   1.53429662206660      4.04138367455279     -0.59856392924781
  O   0.87473373842241      4.44117426523443     -1.68817045358794
  N   1.83527073100225      5.05021754032302      0.25501251439728
  C   2.48873745637779      4.71015478187456      1.32410482831671
  H   2.44331393004337     -2.21389691963656     -0.13527712755648
  H   2.16296352202961     -1.55103713889381      1.48801240947757
  H   3.79393642476518     -1.56396252608043      0.80970499555915
  H   3.09499254456272     -0.74544151942100     -2.01540760300592
  H   4.39831264475595      0.00771884068436     -1.08398010261328
  H   3.14415203956659      1.01565686597822     -1.82828695624117
  H   0.72528211362135     -0.82213380104493     -0.80503587807862
  H   0.82538529908035      0.81640437639394     -0.89836008556215
  H   3.89834214726958      3.71194565770375      3.49416077286711
  H   0.70989200380205      3.66176166585114     -2.23358472726249
  H   2.74448701376444      5.50127115244910      2.02448196034612
