24
Coordinates from ORCA-job 23524optt
  Cl  1.26509481321174     -0.37830718940687     -1.38588584283137
  C   2.64224850023815     -0.20790468479189     -0.34134477868148
  N   3.01235419506130      0.96873919439814     -0.06672298759364
  C   4.19708605115059      1.08737478340933      0.66652537418281
  N   5.09374043684948      0.19166972182655      0.78318274245475
  C   4.80813646594797     -1.07434933128200      0.25950705239050
  C   5.84037615108940     -1.86027666502633     -0.07619446134333
  C   5.72489916721055     -3.14620582740362     -0.78380847176537
  N   6.23246009098889     -3.29507071663097     -1.93321297649304
  C   5.09111829981385     -4.28549164829145     -0.02820432660432
  N   5.52098762817315     -5.46731531885798     -0.00186108743251
  S   3.70285423304902     -3.97747300052885      1.03746333620078
  C   2.82058509020751     -2.58736404090194      0.42738720960822
  C   1.33489107842999     -2.82802017038658      0.52131836405908
  C   0.56249597336802     -1.83063485613756      1.36282864180426
  O   1.04165189460663     -0.90775214136223      1.95270491914873
  C   3.38369483147763     -1.40815447001845      0.08470931693889
  H   4.36381015430558      2.06554357267691      1.10160827209194
  H   6.84060695489990     -1.48130505745531      0.09719736564063
  H   6.08319267938269     -4.24274618375437     -2.28700293509636
  H   6.37634133024856     -5.56970702426569     -0.55045800723822
  H   1.14373564927321     -3.81085766071376      0.96263834455548
  H   0.87052422928937     -2.86467569643105     -0.46690411294162
  H   -0.52288589827328     -2.03771558866400      1.41252904894520
