31
Coordinates from ORCA-job 23520optt
  C   0.99297712194880     -0.26723258240215      0.05384096231290
  C   2.50703199059019     -0.05804834243149     -0.03186668050111
  C   2.79058533611661      1.37542190622914     -0.48207568642201
  C   3.11213191549251     -0.28347312527817      1.35617371818003
  C   3.08789681686754     -1.11241461244537     -1.02299885691990
  C   2.68606570596621     -0.90299783539969     -2.46588832960235
  C   2.54592626972113     -2.05647978205683     -3.35732915230417
  O   1.40957624007762     -1.38259796571677     -2.84262676478460
  C   4.59351806554061     -1.22516393596495     -0.94948339162577
  N   5.25916940760958     -0.31602129837888     -1.55603270565367
  O   6.63721271274170     -0.35448517181296     -1.52708807721746
  C   7.27088679739521     -1.33033570537645     -0.87084099188149
  C   6.64830588285217     -2.32285466507321     -0.22916869360683
  Cl  7.54693987618635     -3.54859425508714      0.57257886694298
  C   5.19623633881558     -2.37378963695505     -0.22087466501349
  N   4.44952909452201     -3.25630137585892      0.30579818908243
  H   0.56340583454256      0.44970258287139      0.75669263779892
  H   0.75945955619860     -1.27340600387356      0.40753569462570
  H   0.51212332484750     -0.13017876767543     -0.91450166028161
  H   2.41609458275557      2.07016921848914      0.27233542581248
  H   2.28470352047144      1.60759137097007     -1.42059532791655
  H   3.85730742298506      1.55801521846237     -0.61290466630150
  H   2.63155300874546      0.37717585100694      2.08016424471153
  H   4.18279715662264     -0.06273905003377      1.36916410621607
  H   2.97213264429907     -1.31592133763076      1.68058235347974
  H   2.69847706046680     -2.08444435646651     -0.71464566555699
  H   2.96167589381886      0.04691069838774     -2.91133225571405
  H   2.70872299881179     -3.05103537147152     -2.95334655411278
  H   2.70928647756250     -1.93705625972812     -4.42189645788377
  H   8.34537273644725     -1.22275237422222     -0.92792410626634
  H   5.00589820898104     -3.97866303507688      0.76255449040369
