29
Coordinates from ORCA-job 23536optt
  C   0.93079647497361      0.21592084002477      0.28544238633670
  C   2.39771684931304      0.03551592976167      0.03757966826344
  C   3.22284563351953      1.12882663150407     -0.21302781556549
  Cl  2.55118680199922      2.72827752486353     -0.25439837144553
  C   4.59727141736732      0.97561750704825     -0.44253459401380
  N   5.41700369715160      2.04596060799469     -0.65756654429455
  N   5.17907460536110     -0.22983970151117     -0.40980127746357
  C   4.39930563384860     -1.26432708839862     -0.18943669984055
  C   3.00731349319092     -1.21128681097484      0.03379157141544
  C   2.37995964011478     -2.60448852581323      0.23324254423701
  C   3.50131058943578     -3.39706518529094     -0.43362894397982
  C   4.41531036801350     -4.63970262438489     -0.36736793950398
  C   4.37155153262925     -5.66253002185456     -1.46937646913725
  O   5.53035743560265     -6.46504355062942     -1.45875205630780
  O   5.56252629686207     -3.73678663452583     -0.54299330447040
  C   4.74083881638824     -2.71023316313581      0.05312850985119
  H   0.44912779312257      0.67698564947668     -0.57839885906230
  H   0.76686156599889      0.88278071036194      1.13311115192942
  H   0.44893513369475     -0.73651775041236      0.49136344453917
  H   5.01262343744483      2.91942526850132     -0.94630813412166
  H   6.33770910718828      1.82293938656368     -0.99640942382255
  H   1.40433603678538     -2.70342394775374     -0.24003710528055
  H   2.27750482033551     -2.83956345477930      1.29682234047671
  H   3.44695654445498     -3.17201214183250     -1.50301369208889
  H   4.48036812208545     -5.11068093235082      0.61818309415241
  H   4.25531466093708     -5.15055455099019     -2.43107099835929
  H   3.51875423683856     -6.32760118758912     -1.32330812273479
  H   6.29344601119183     -5.87738678924245     -1.50270386560258
  H   4.84669324415063     -2.81720599463080      1.14446950589385
