27
Coordinates from ORCA-job 23534optt
  C   2.18175978456571     -1.47039070064029     -0.08129589129092
  C   2.56412318562345     -0.00126747901426     -0.03068179540683
  N   3.08087809404570      0.37833976088512      1.29136241636260
  C   2.20952214564849      0.63260863637176      2.31092703852463
  N   0.94982241855496      0.55707865985988      2.12289919657843
  C   0.07464578188713      0.84183189609797      3.14615015979594
  C   -1.06866727029777      0.12865628665869      3.33736260524602
  Cl  -1.38665840036701     -1.22610836651130      2.30448665937181
  N   -2.00737617151253      0.35544844678748      4.28222416141065
  C   -1.94662302533056      1.27679611532397      5.17045548557726
  C   -0.87686884139685      2.26370917621447      5.35754681583429
  O   -0.85490324658969      3.09756064215829      6.22230708223469
  S   0.44752250148784      2.20873344824962      4.16263908402630
  C   4.45804451908511      0.33291416760959      1.48911846619681
  O   5.23291796964686     -0.01910673403490      0.64403086388751
  O   4.80617338593929      0.73019538446828      2.71458334575289
  C   6.21227732022802      0.70003472840796      2.97571161293142
  H   1.80545347825769     -1.71921631903833     -1.07336056847657
  H   1.39990067138596     -1.68474582399865      0.64688180996060
  H   3.05077383891992     -2.09622191567014      0.12290472097785
  H   1.70087595031296      0.63184945397689     -0.22410981397838
  H   3.34762218518834      0.22706397346810     -0.74768672127691
  H   2.67130550477480      0.86742321078463      3.26725506830873
  H   -2.76529353581176      1.36988551173142      5.87914725046579
  H   6.32477226348731      1.03921922611258      4.00025198352451
  H   6.73388213439714      1.36379814157009      2.28934404874428
  H   6.59411735786943     -0.31208952782894      2.85854491471656
