28
Coordinates from ORCA-job 2354optt
  Br  1.05480431145568     -0.67148210005988      1.24874631002850
  C   2.82305808627437     -0.29358603753778      0.67219499522749
  C   3.77689286056335     -1.29151841144993      0.51979725851321
  C   3.48704040096838     -2.73893819817578      0.81876248183841
  C   3.24549396512445     -3.51680587349722     -0.46752425673414
  C   4.33047165838170     -3.30968297425885     -1.52173194364373
  C   5.75223603862328     -3.27779542618496     -0.91669080542656
  C   6.12999631754447     -1.88777247249411     -0.28511104133392
  C   5.01599945071721     -0.91514594254703     -0.00265719943897
  C   5.21844177699894      0.43229583063539     -0.28649771886266
  N   4.31613603649910      1.38687071101595     -0.09320906081761
  C   3.12999856569361      1.02689728404665      0.37036280583332
  N   5.91819719988439     -4.35364166289500      0.06509683625421
  C   5.35448502094902     -4.26285168647439      1.18273524720264
  O   4.51618396385039     -3.30714153386949      1.64948084522125
  C   6.70317824665580     -3.52973769957710     -2.01223891337612
  C   7.44909838310208     -3.69310839500515     -2.93375691156616
  H   2.59735318147505     -2.79908440669022      1.44006993625734
  H   2.27828201540269     -3.20092800888360     -0.86353463679302
  H   3.15673001663689     -4.57469451774132     -0.21394465365044
  H   4.17593886321810     -2.37745705184021     -2.06803812011873
  H   4.28155758322157     -4.11818411918654     -2.24969982957194
  H   6.82093272423372     -1.39389755226410     -0.96645921921283
  H   6.69309357920779     -2.08801109883418      0.62849431381692
  H   6.17040570277573      0.75272053876899     -0.69805859787893
  H   2.38734837926823      1.80389866989078      0.50825814136807
  H   5.55396134355087     -5.00607726934000      1.95053581784612
  H   8.11968432772308     -3.85514059555091     -3.74338208098171
