17
Coordinates from ORCA-job 23550optt
  Cl  1.09252562813753      0.16049339109602      0.78945776760344
  C   2.75478929276768      0.02972842425330      0.38362350480336
  N   3.47374807349536      1.12399459922102      0.30761049922539
  C   4.76373137218452      0.98014554276589      0.01068863535463
  N   5.39935783657591     -0.16047129801099     -0.21090371929496
  C   4.66622771697905     -1.26568586364159     -0.13565684196197
  C   3.31969979590440     -1.21996317472212      0.15649748350822
  O   2.60438945517023     -2.39496418278116      0.29804976215283
  C   1.68176289765195     -2.64786872116604     -0.63230226296748
  O   1.43656122774061     -2.04244680255592     -1.61273686316186
  N   0.98836874617219     -3.84438505695862     -0.26241286979044
  N   0.00770153807160     -4.35217134024430     -0.99100572699937
  N   -0.36230842867320     -5.39543543129160     -0.36887274083437
  N   0.39142175129674     -5.53552657123691      0.75224702259532
  N   1.22392361578068     -4.57893347961465      0.81589092197951
  H   5.34773641451817      1.89056637021296     -0.04564675650094
  H   5.15236306622656     -2.22107640532527     -0.30152781571129
