29
Coordinates from ORCA-job 2355optt
  Br  1.20362893852127     -0.23813430563877     -0.66680518077880
  C   3.06140921733331     -0.14018072779150     -0.38117913956789
  C   3.76365676311312     -1.21317227805781      0.03915881852236
  C   3.08788454790307     -2.54585457103959      0.50136770081969
  C   2.83971140693599     -3.79194670139346     -0.45968574020973
  C   4.19893061361065     -4.61986563469385     -0.35486705845282
  C   4.97438477377922     -3.37966012851208      0.12110766898505
  C   6.11717643780699     -2.40152731732777      0.38748376979506
  C   5.23418212380165     -1.11366843994803      0.23008182625177
  C   5.78555494656439      0.10708283091556      0.06006073322614
  N   7.15118284828837      0.36653013426834      0.21422662280530
  C   7.86702927550184      0.15281202119875      1.38785213677207
  N   7.46304585556489     -0.29845099756966      2.49287813260290
  N   5.02241089430510      1.18964477751214     -0.30780668753636
  C   3.66476690117363      1.17517419309136     -0.59520152555947
  O   3.09295714997340      2.18430638132297     -0.94359906270135
  O   4.14017519656598     -3.05910537248787      1.25636685054181
  H   2.21225549139927     -2.31256451140689      1.10722961489856
  H   2.64004174260282     -3.50063788578938     -1.49105305516761
  H   1.98588317457809     -4.35422810794389     -0.08625971398074
  H   4.51155346970570     -4.99388671861631     -1.32734272942782
  H   4.14407823923241     -5.42778525464906      0.37002174068689
  H   4.66043701348619     -2.82907552105160     -0.77327172675173
  H   6.89673378431698     -2.39393967090350     -0.37499956088700
  H   6.56978684567457     -2.49336123809114      1.37338642575160
  H   7.60761975840953      0.90434393722757     -0.50586678988528
  H   8.91394676891601      0.42870106548689      1.27257054788622
  H   6.46446591670798     -0.51017373094932      2.48653658043732
  H   5.45010990422748      2.10462377283793     -0.34439119907616
