22
Coordinates from ORCA-job 23554optt
  Cl  1.22511892442309     -0.29297151342055      0.04857009427284
  C   2.93246001788006     -0.11922822585855     -0.05001776453948
  C   3.55976837053160      1.08969037813110      0.27263224329423
  Cl  2.62953117743846      2.45213666152797      0.77221235602435
  N   4.87127218673839      1.26224525447115      0.21529717855384
  C   5.58495607501092      0.23060800196769     -0.17635422910746
  C   7.07413406960279      0.12786461841624     -0.29723131599783
  C   7.83059105686342      1.03457806780058     -1.25992541112771
  C   9.26339359315329      0.51531484572323     -1.31822266626462
  C   9.42114246926316     -0.98554612933969     -1.47888445747742
  O   10.43679417820332     -1.50928410092248     -1.79327267664096
  O   8.32813987855191     -1.79872305370091     -1.23252843398440
  C   7.15545358656044     -1.27762530398019     -0.82973411389108
  N   6.06252423608961     -1.92011426146329     -0.95064770023000
  C   5.06241524148540     -1.01570786799075     -0.52997947080359
  C   3.69829217709064     -1.20526048273550     -0.46392383113119
  H   7.53914599117770      0.17806361193989      0.69426717421556
  H   7.80582349563980      2.06898809432482     -0.92240790204534
  H   7.35906751253707      0.99389734999330     -2.24406013355085
  H   9.78534874615678      0.75769775449947     -0.38774393501489
  H   9.84222587098689      0.96351424577314     -2.12365851316790
  H   3.23040114461519     -2.14513794515667     -0.72238649138607
