33
Coordinates from ORCA-job 23555optt
  C   1.84477370483336      1.18698415839933      1.59224474957008
  C   2.87828231051235      0.43256635887914      0.76988023802966
  C   3.10142847316085      0.98295028191609     -0.65997585654916
  C   4.64437568568134      1.24122122049290     -0.70237749522761
  C   5.25924216189706      1.28142968038607     -2.07970461113575
  N   5.18555952683989      0.17134087806083      0.17833801169294
  C   5.07780502405166     -1.18404347927867     -0.32762258939833
  C   4.33700075894575      0.47565698791548      1.34415207969725
  C   4.68117971588755      1.92892435354230      1.50873101390084
  N   4.71768329368749      2.63248415364430      2.62616559061140
  C   4.97986212035003      3.91727937158681      2.45399724796433
  Cl  5.08031172367359      4.88471745355834      3.89539614616962
  C   5.16123804500950      4.53778941519947      1.22765399659227
  C   5.08251748823798      3.78455691777193      0.05213596363219
  C   5.22305730422828      4.44661264667947     -1.28859681785234
  C   4.86361894710430      2.42762780403391      0.22116512654411
  H   0.84767785792825      1.06135719715769      1.16760866543014
  H   2.06716440758134      2.25531291187086      1.61824981383634
  H   1.82231601219899      0.82868881408869      2.62277795978727
  H   2.58381755141025     -0.61723897129016      0.71518191366103
  H   2.53967706129152      1.89929435080843     -0.84703948935177
  H   2.81869264049114      0.25832094928984     -1.42548570301474
  H   5.10539686305645      0.32882605213588     -2.58883310425387
  H   6.33124328812588      1.47362530676587     -2.01928640059141
  H   4.79431319504493      2.05671138694906     -2.68799695789319
  H   4.09179530538886     -1.44988356544305     -0.73068524946787
  H   5.30857238871202     -1.87338142065731      0.48517133820338
  H   5.81997995765212     -1.33933815302259     -1.11042047384157
  H   4.51671282404124     -0.15821366507313      2.20903767454428
  H   5.35452246293951      5.60093338664229      1.19131128324672
  H   5.35801508511222      5.52097920915568     -1.17754303250078
  H   4.33440407816495      4.27443279569770     -1.89804590576245
  H   6.07776273675926      4.04647521213651     -1.83458512627301
