31
Coordinates from ORCA-job 23557optt
  C   2.93060633928035     -2.04990891365447     -0.51497167423649
  C   3.82881668598670     -0.91031370084301     -0.04948612892292
  C   3.87302403655264      0.24041554094159     -1.03638696750151
  C   2.52925270394726      0.90649057818146     -1.26063878934113
  O   4.81283215336994      1.19561382585267     -0.48385497784377
  C   5.23461936789681      2.15949359607386     -1.33144812856441
  C   4.80534498361889      3.47332859961863     -1.15713269356807
  Cl  3.74400983484810      3.87844035289844      0.13756449293617
  C   5.22288094569702      4.45894012699052     -2.03993839949450
  N   6.03380652627865      4.21149019672507     -3.05883617332055
  C   6.47692152771493      2.97062433360069     -3.20685231366864
  C   6.12867928739144      1.89988616587834     -2.38128279627976
  C   6.70984690095395      0.56993443880179     -2.59921489713369
  C   7.09538401066400     -0.36081684128625     -1.67264783652142
  C   7.65083379144097     -1.52675898146413     -2.25811915990465
  C   7.67174263440381     -1.46842262534177     -3.61907127534218
  S   7.02207433037292      0.00006474816523     -4.19436098818420
  H   3.00237006444907     -2.89813297931895      0.16498073074832
  H   3.22188305933269     -2.39519268077954     -1.50934209184622
  H   1.88383589347981     -1.74851891857544     -0.55651227763237
  H   4.84893998746910     -1.27433790945682      0.08803330275454
  H   3.49164663074786     -0.52276036393660      0.91527376797693
  H   4.27155006452333     -0.11984652973690     -1.99088712764027
  H   2.09440477817893      1.21441741890599     -0.30888841106244
  H   1.84709451859737      0.21729666022220     -1.75852827298150
  H   2.63272129166107      1.78706514759862     -1.89620368889564
  H   4.87411008906774      5.47665408678828     -1.90843546087359
  H   7.17394612425710      2.80260699865894     -4.02166632197705
  H   6.98952845723627     -0.20089100442958     -0.60989478168822
  H   8.02074681909444     -2.37016806639560     -1.69353310734656
  H   8.03554616148673     -2.20869330068328     -4.31271755264421
