24
Coordinates from ORCA-job 23562optt
  C   0.90088448151564      0.06060147291753     -0.09011694484678
  C   2.42289511045988     -0.04538530814424     -0.03864944664312
  N   3.04635074437808      0.90000451343215     -0.98457616740920
  C   4.29222480444442      0.32881884305108     -1.51177994400948
  C   4.02355521638967     -1.13841779061153     -1.39781574353961
  C   2.95215404510491     -1.36967307628544     -0.55794083309095
  C   2.53902548840114     -2.65796588465518     -0.28694867598372
  C   3.24860744212961     -3.69040425099396     -0.90263512847117
  N   4.28736053437901     -3.47949318093896     -1.72206844851976
  C   4.65207385259287     -2.24073116808308     -1.95346199105988
  Cl  5.99961968130170     -1.99046048418444     -3.01618889033927
  C   2.87360869684613     -5.05536166405742     -0.65790288460928
  C   2.53601253849134     -6.18068460231644     -0.42505790482039
  C   2.90133003394048      0.14994823429119      1.34633964107622
  C   3.29165542410207      0.33832598045965      2.46349714975136
  H   0.56639136796455     -0.13323858638715     -1.10801439694277
  H   0.59281701922402      1.06397566657792      0.20252164274907
  H   0.44129627891855     -0.65313721431889      0.59405898604703
  H   3.18199244779297      1.80833937526585     -0.56074879434694
  H   5.18230633792936      0.59074535044761     -0.92436143176638
  H   4.46163675897298      0.64525183333111     -2.54151456882926
  H   1.71193210385514     -2.88261616628065      0.37243835580448
  H   2.24939364943336     -7.18512278943208     -0.22310737392156
  H   3.63987594143205      0.49968089691539      3.45603379372136
