30
Coordinates from ORCA-job 23570optt
  C   3.32434990933400     -1.58026151036306     -2.65660064770168
  C   3.87705281184277     -0.19333996987125     -2.46330805989782
  C   3.02222083530088      1.03084923401030     -2.57908568717462
  C   3.57650538665259      0.62891325504812     -1.23601129247341
  C   2.61038299809159      0.12699809687924     -0.18111111027021
  C   4.71847155933318      1.42866341278117     -0.69071581201102
  C   4.61455944170174      2.76921210723161     -0.53319306471562
  N   5.66856094035716      3.54896354205201     -0.08695611731048
  S   7.21648715201201      3.09620485808942     -0.44211785846697
  O   7.44281781519764      3.15667824700759     -1.84907009192426
  O   8.06428422688376      3.83131282911727      0.44137281845395
  C   7.10717018075526      1.41055031800839      0.02669282741225
  C   8.37283745066106      0.84325954961745      0.57819662344462
  C   5.94772170362208      0.78400978042058     -0.24264059598678
  Cl  5.85872429761068     -0.93120655889995      0.00692609853034
  C   3.38645208478378      3.46668925708828     -0.77889961845628
  N   2.41595868752242      4.05940093719495     -0.92967646898117
  H   3.40732737410209     -1.87586987114358     -3.70313376113212
  H   2.27138918640940     -1.63814715457933     -2.38307869063357
  H   3.87351501929866     -2.30716534484665     -2.05506416793326
  H   4.88985537241753     -0.06608984250687     -2.83164341334943
  H   1.95703549528870      0.89211288996823     -2.71334987814657
  H   3.42847439555891      1.90234005935675     -3.07350744390015
  H   1.78929960411822     -0.42522168042762     -0.63489311479155
  H   2.17947478417140      0.97052457035736      0.36178204848335
  H   3.10710023762738     -0.52774436907252      0.53588025779792
  H   5.52507547725829      4.50115309617980      0.22074359709416
  H   8.76339482451923      1.50789077293155      1.34933602035957
  H   9.13082137911480      0.76684274151442     -0.20459498694608
  H   8.20067936845266     -0.14352325314371      0.99772159062691
