26
Coordinates from ORCA-job 2357optt
  Br  7.76792776453488     -4.03249667477372     -2.10761120742612
  C   6.77762623152731     -2.67535190775991     -1.28809795673362
  C   5.43849210824897     -2.60823233224552     -1.16275022919081
  C   4.54441434882311     -3.70064881204030     -1.57317044837419
  C   3.34750084498241     -3.60095581225031     -2.22277625428130
  C   2.53279030137819     -2.46717378156253     -2.73343858327193
  C   3.05721440586102     -1.10978038892471     -2.27662062288175
  C   3.39017266379695     -1.09177966396458     -0.77735027156164
  C   4.83849731380419     -1.41136640825974     -0.52988985956742
  N   5.47321448188055     -0.60458431304350      0.23898387713374
  N   6.80331392042585     -0.84052070353137      0.44464483071988
  S   7.73765063061772     -1.26867029503261     -0.85165535601985
  O   7.62261167943539     -0.32416445052426     -1.91599266142272
  O   9.02399309644383     -1.61079714050714     -0.34289051760421
  O   2.82132808572345     -4.83046287165116     -2.40000497441175
  C   3.67370754276338     -5.73268443986144     -1.85368180609743
  C   4.74613502058522     -5.10780526657611     -1.33430940152778
  H   1.51209800333299     -2.60786230394858     -2.36464506833346
  H   2.47710556468567     -2.51651349886923     -3.82378892514729
  H   2.30183293754394     -0.35585467196421     -2.49580358389301
  H   3.94624952997612     -0.83488582302153     -2.84987411225486
  H   2.75357352722549     -1.80687763766443     -0.24782186122297
  H   3.21309624961605     -0.10952385260928     -0.34519555605349
  H   7.24040990406942     -0.15028679552451      1.04437100691267
  H   3.37387093861854     -6.76401932573917     -1.90955882789705
  H   5.57517290409930     -5.56870082815009     -0.82707162959163
