31
Coordinates from ORCA-job 23573optt
  C   2.74271720822250      1.35792052024136     -0.70110072796121
  C   2.61621369223011      0.05862894895957      0.07239580262658
  O   1.27620924609261     -0.17668300552542      0.47399072004994
  C   3.15212322289317     -1.15113199889066     -0.71108388922267
  C   4.64846540041865     -1.13713565965065     -0.80559291749221
  C   5.34870295874777     -0.71258746661272     -1.89527540695812
  Cl  4.53078825289849     -0.18076304668557     -3.34093195280923
  C   6.80003046679486     -0.67081114097554     -1.90922652191042
  O   7.44475250304206     -0.26798669462549     -3.02071424848174
  N   7.52785322586276     -1.00081819690191     -0.90166340916806
  C   6.86498134694203     -1.43043374560518      0.20954106733130
  C   7.40176025240563     -1.84591967223625      1.41130321224582
  N   8.71099879166952     -1.94862353880001      1.91314962069137
  N   6.33643483926706     -2.19707069680307      2.19674072758735
  C   5.13840552237909     -2.03217693870773      1.57939153209969
  C   3.86745658150100     -2.44682979159288      2.24531692069216
  C   5.43767254334430     -1.53320114962690      0.31167662187001
  H   2.35465702389209      2.18384106290654     -0.10579210923447
  H   2.17679642132951      1.30090627009823     -1.63517486285781
  H   3.78374821746500      1.56434978051257     -0.95278298936967
  H   3.17894454642079      0.14250417256233      1.00484230920827
  H   0.70655885706061     -0.12588069402163     -0.30103326741618
  H   2.69409014657695     -1.16793604733561     -1.70158890606768
  H   2.83736405895059     -2.05196538657769     -0.18331780427341
  H   6.80713068596980     -0.02879677953778     -3.70351781593017
  H   9.26471116552587     -2.60521252443193      1.37587643735986
  H   9.18873129278104     -1.05581945876948      1.88112073737367
  H   6.45935635425112     -2.54457628594168      3.13531794650656
  H   3.50106293411048     -3.39932405868778      1.85455406202637
  H   3.07233678856731     -1.71299347656293      2.11577350692665
  H   4.02894545238712     -2.57147330017411      3.31680560455743
