30
Coordinates from ORCA-job 23586optt
  C   0.88783200689825      1.84996353289258     -0.17948301311579
  C   2.34647315810188      2.21933788675021     -0.04528765893413
  O   3.00894775568688      1.14033153537867      0.60095170947252
  C   4.40385610682342      1.12591326676412      0.51674743876530
  C   4.87049100605719     -0.04860423784967      1.38408885684596
  C   6.38539640226011     -0.22223497913099      1.39437654497506
  C   7.10380343744390      1.08500983696226      1.53778265927272
  C   6.47614130523259      2.25796261784506      1.37938574745358
  C   5.03003952349494      2.42884709380874      1.03928550882684
  O   7.08453476292063      3.46310436649431      1.50283201744663
  N   8.41017169013298      3.54865703802282      1.81430801892119
  C   9.05856953913121      2.46503605540350      1.96120388527134
  Cl  10.72469843174039      2.65590239106915      2.34363416903383
  C   8.52684018050818      1.08775458791131      1.83367880928518
  N   9.18956748360227      0.01161611245740      1.95628768914123
  C   4.87232783261792      0.87153125986523     -0.91748953762630
  O   4.16287661814332      0.45148236496063     -1.78377736552356
  H   0.33528000473484      2.66371791913951     -0.64938690218183
  H   0.45400406229715      1.65363451579425      0.80081015214943
  H   0.78810781585869      0.95488456499034     -0.79196871149069
  H   2.45958704158895      3.13236896411767      0.55013315041635
  H   2.78260119116538      2.39642818581858     -1.03223421948192
  H   4.37429311482381     -0.95072018824079      1.02572119943838
  H   4.50527568773953      0.14928761762435      2.39444988034418
  H   6.74272244437728     -0.72059024783822      0.48756669267033
  H   6.69034462715160     -0.87401981685905      2.21431230512151
  H   4.93943997272180      3.24219825084641      0.31457725227847
  H   4.47982222533885      2.73448705924686      1.93386229224607
  H   10.17019970021131      0.19484750968657      2.16175765101804
  H   5.94275487119468      1.08786493606815     -1.11212622203991
