28
Coordinates from ORCA-job 23580optt
  C   0.87264163548314     -0.10061418003856      0.15344805307674
  C   2.40319807471124     -0.04429258249979      0.07202711091788
  N   2.99257246173006     -0.70181332144038      1.24526097622977
  C   2.83213897336689     -0.83013359959227     -1.18945600432732
  N   2.66592381380500     -2.26351184625814     -0.96006974393699
  C   2.93169775802467      1.39123696643906     -0.00588443828496
  C   2.02441543417616      2.46080641866792     -0.09945469763760
  C   2.50851931487399      3.74303445214656     -0.16001675477808
  C   3.89306268517974      3.93149999466694     -0.12164426537116
  N   4.12298217417563      5.28829051309688     -0.18555351256495
  C   2.92297225518499      5.98527180525567     -0.26091113761128
  O   2.76302942675880      7.17639311214336     -0.32400139527378
  N   1.94140330261452      5.00102942319825     -0.24566996875255
  N   4.77424898344660      2.97154294824198     -0.03609467550339
  C   4.29514225866336      1.73163184816306      0.01649171483758
  Cl  5.55433432997946      0.54016917571964      0.11930888476759
  H   0.58609013000075     -1.15146341278942      0.18776006239705
  H   0.38591690845881      0.34531904493692     -0.71604117864663
  H   0.50818415261703      0.38960756345538      1.05827385181942
  H   2.51681661902717     -1.58523097715238      1.39503487462442
  H   2.85122260359439     -0.13405264697695      2.07325496685951
  H   3.85258945475253     -0.56455157246251     -1.46535897868517
  H   2.17955811858977     -0.52907620919420     -2.01098172422027
  H   3.46932630616760     -2.62043636277803     -0.45541677000957
  H   2.61747456978609     -2.76543845879154     -1.83675939866235
  H   0.96081896176002      2.27709506427690     -0.11549079738799
  H   5.01987001360358      5.74378628138106     -0.17175708489250
  H   0.96484927946797      5.23390055818456     -0.29329796898342
