30
Coordinates from ORCA-job 23596optt
  C   3.29634019538514     -1.31664893638041     -0.28607904276686
  C   2.49430327303590     -0.03067187380058     -0.21968637903422
  O   2.39815344726047      0.45243670451826      1.10522337024404
  C   3.02503413811057      1.08881586622934     -1.15863257011716
  C   3.01179523177234      0.58686309594694     -2.60721265955895
  N   2.09583033072183      2.19577370330487     -0.99639726281789
  C   2.31160761681380      3.46322883793204     -1.53202765342589
  C   3.37092114770099      3.82105236549442     -2.30040548825042
  N   3.44937090991235      5.08590805643565     -2.84585995692905
  C   2.54160806254324      6.07860875293314     -2.66354256015550
  O   2.63406732731163      7.20249956018515     -3.15241315146510
  C   1.41332276388724      5.71454674327069     -1.81853455428244
  O   0.51602808958385      6.68396375491838     -1.62378046399387
  C   1.30918365032241      4.47269663046271     -1.28868931992969
  Cl  -0.04649526896538      4.10125883159520     -0.29597618489176
  C   4.39822895208296      1.42986171541196     -0.72106047667823
  C   5.50157122614545      1.68271243029899     -0.32592364418118
  H   2.89344760939055     -2.01896744145022      0.44194737340230
  H   4.34580458196482     -1.12956363247375     -0.04946512662862
  H   3.23937642570057     -1.77521376845349     -1.27265176104617
  H   1.46327442661938     -0.21199653112936     -0.53132098240702
  H   3.29049744533308      0.62889936396700      1.43092603712883
  H   2.04817682646173      0.11596192515687     -2.80541386801201
  H   3.80945994607938     -0.13410529218543     -2.77599298401574
  H   3.13360268816585      1.40782157379620     -3.30974534372578
  H   1.69509020402351      2.21664425801514     -0.06624142282425
  H   4.19971962186082      3.16859141078719     -2.51459118289864
  H   4.23960805368275      5.32483645141187     -3.42656473518016
  H   0.85081179872166      7.45261573512655     -2.12139439303801
  H   6.48425927837106      1.91856970867464      0.00850638747947
