28
Coordinates from ORCA-job 2359optt
  Br  1.07884987950572      0.18267100587203      0.01353417303869
  C   2.96200267040583      0.13186423872367     -0.10341299940307
  C   3.73329187448019      1.21745026786578     -0.22943885846917
  C   5.17854007470891      1.11517347778468     -0.28511108001314
  C   5.92813777338081      0.01500367010322     -0.09378148180700
  C   7.41565463340006      0.17298315317457      0.09252758479013
  C   7.71280615769497      1.51771749237383      0.76001054475804
  C   7.20698071613269      2.68267703883630     -0.08589835320493
  C   5.74822450790309      2.49350310959038     -0.53361152632452
  C   4.68253530836289      3.40669076032158      0.08144249733727
  C   3.38462497178867      2.67792985804974     -0.22326302412454
  C   2.29824515489947      3.26697322415419     -1.01903115788155
  O   2.20542802415815      3.13396435370207      0.38998557995139
  C   5.33894416613550     -1.32440918978772     -0.01740605258624
  N   5.93533366548071     -2.44467143978155      0.02752419962907
  S   3.56461883212563     -1.48876936129545     -0.01797771016450
  H   7.94656976810988      0.09651607000095     -0.86289604275888
  H   7.78951638516897     -0.63431329278651      0.72530475517466
  H   8.78460573497303      1.62481653449649      0.93093396300686
  H   7.22538566403494      1.52807542560524      1.73857390671170
  H   7.84491015293437      2.77342306347312     -0.96721124605604
  H   7.30313211203826      3.61941262723476      0.46655530691289
  H   5.69617003705021      2.63394804557621     -1.61968572433577
  H   4.69663433997168      4.42285805928328     -0.30955540055520
  H   4.80821035299532      3.44778315667314      1.16779057647740
  H   1.64179422274217      2.61514882914369     -1.58515815169144
  H   2.40373437522596      4.28422221136541     -1.38130723211260
  H   6.94611844419181     -2.33464238975313      0.00356295370048
