30
Coordinates from ORCA-job 23608optt
  C   1.52020383585585     -0.79708340931252     -0.84535484384559
  C   2.87141597510581     -0.26327621372480     -0.47620665624076
  C   3.12444756409454      1.05074191055255     -0.34762558191853
  C   4.41938779854785      1.53874418952692      0.10276713679093
  N   4.48068567795639      2.75595626562749      0.50468790749854
  C   5.60125738567887      3.32181290182286      1.10998640639137
  N   5.48396699858243      3.80548355410560      2.27728150767593
  C   6.78328338854978      3.43104444046888      0.23859759691776
  C   7.44518435090694      4.77427602585226      0.08499127258573
  N   7.64829128251155      5.11200080084466     -1.33024758124861
  C   7.35331055770495      2.31005369565136     -0.28208400463687
  N   8.57947147540758      2.37778567691303     -0.93059220013713
  C   6.83210433227830      0.97761083645404     -0.09345549067280
  C   5.54500138731585      0.58508172671960      0.08625391653422
  C   5.17942361019135     -0.82498314086292      0.04894670679422
  Cl  6.41253189996770     -2.01775003570852      0.29507537395855
  C   3.92650962633324     -1.22413908428746     -0.21948441269211
  H   0.80749585278808      0.00904630853844     -1.00761737175648
  H   1.13635126769986     -1.44621967116379     -0.05534258143060
  H   1.58066432445158     -1.39790588135533     -1.75549995416179
  H   2.35056921553040      1.79751575387510     -0.46992970512345
  H   6.36673925588200      4.21788023568204      2.57683562705994
  H   8.43716465669974      4.73449981806584      0.55087191669641
  H   6.85779779828962      5.51971562153871      0.62832938850999
  H   6.75449642354195      5.15066473507802     -1.80722954904892
  H   8.07970256368330      6.02452198391272     -1.41744842316298
  H   8.79965378390689      1.58577766642889     -1.51303914776009
  H   8.73790606436833      3.26539971391150     -1.39452218729770
  H   7.56810731328354      0.19001910563249     -0.21754266554621
  H   3.69787433288565     -2.28127553078765     -0.26640240073297
