28
Coordinates from ORCA-job 23603optt
  C   3.00292716084633     -1.14596160614616      0.58898146632642
  C   2.39245706263124      0.05864638810931     -0.11927911059390
  C   0.86945615489852     -0.00424986756182     -0.06124959923550
  C   2.93734400035721      1.41601569701594      0.44545603087556
  N   2.43202293549404      2.59989737279381     -0.26854464004285
  C   2.46941777968987      1.54756181771448      1.83693532116509
  C   2.02909294299335      1.65760251112574      2.94474649795632
  C   4.47165034323715      1.43909802047653      0.41903072088352
  C   5.17770923952529      1.42474710821563      1.55538783056104
  O   6.52136768267167      1.42970746256462      1.62641200254116
  C   7.32320529565480      1.44608232273673      0.51148181137983
  N   8.57736621764041      1.43911713812180      0.60711899512087
  C   6.60639094576990      1.47331430815753     -0.76538089484299
  Cl  7.58066072163103      1.51346130649676     -2.16331787147263
  C   5.25654065069343      1.46914623442037     -0.80576672283417
  Cl  4.48036954500553      1.50617119829562     -2.34240403358327
  H   2.57949234172310     -2.06706696193951      0.18715624477055
  H   2.78290802339866     -1.11362285349185      1.65876499581270
  H   4.08446331755911     -1.19104360503409      0.46343912653816
  H   2.69336227335821      0.03189855704912     -1.16773116448045
  H   0.52235779602080     -0.02326004835573      0.97296524640528
  H   0.52100742513833     -0.91387928350413     -0.55129640185320
  H   0.40375157221031      0.84278592264189     -0.56530886432673
  H   1.51938474773054      2.85521935102579      0.08598030879253
  H   2.34691162781322      2.41432304411722     -1.26019950464432
  H   1.64180909982673      1.76602700417732      3.93020529353494
  H   4.73037628776967      1.40666401320787      2.53689824786241
  H   8.86719680871150      1.42059744756921      1.58251866738361
