29
Coordinates from ORCA-job 23602optt
  C   4.21648716637714      2.44744641533950     -1.00781233530025
  C   4.07334987914486      1.04708697741043     -0.42610010742616
  C   4.57475396646693     -0.00409484370784     -1.39041850787460
  O   4.37896276554542     -1.27260923591610     -0.78984865212056
  C   5.01071071868714     -2.36824923142299     -1.39605794021308
  C   4.52799849376889     -3.59296107409834     -0.61374687574846
  C   4.56909261302760     -2.44071453507735     -2.80802277801379
  C   4.12595761131355     -2.44062968327442     -3.91950542156059
  C   6.54853127122345     -2.30254605937533     -1.29318119739823
  C   7.39973302166805     -3.09016523034356     -1.99911318706500
  Cl  6.89167731780786     -4.32083018587503     -3.09623637590050
  C   8.82331770316472     -2.98548397607083     -1.86829275802743
  N   9.37724545159166     -2.16163962989629     -1.05005112323440
  N   8.56008649658232     -1.43290579308185     -0.30663151119893
  C   7.17026716473600     -1.45136409108718     -0.25943625399334
  O   6.61303565543946     -0.80002156936777      0.59699380154607
  H   3.84942986024421      3.20078143881958     -0.31156008600120
  H   3.65237393645165      2.54882680516481     -1.93715895279075
  H   5.26156518846135      2.67640116988865     -1.22540888608183
  H   3.02678712790803      0.83464119467926     -0.19688546603919
  H   4.63749811755988      0.95107297908355      0.50216736907428
  H   5.63758564800708      0.16016088715957     -1.60548548326159
  H   4.02986737025864      0.04240580441072     -2.33967500088505
  H   3.44245073711075     -3.63873450091198     -0.67699411196395
  H   4.82386630435264     -3.46880313211646      0.42768907522270
  H   4.95607312173160     -4.50803905007405     -1.01788137350072
  H   3.74737780476762     -2.45851966124143     -4.91372059615570
  H   9.47265682398800     -3.60127058322714     -2.47366184798483
  H   9.00526066261336     -0.83224160579010      0.37403658389711
