27
Coordinates from ORCA-job 23604optt
  C   0.97506958206309      0.13372494188250     -0.03208301532500
  C   2.49319927959144      0.15553678498950     -0.06477737320326
  C   3.06262327455130     -0.90062822406628     -1.01740876680558
  C   4.37295421580710     -0.29815565381362     -1.55535366150971
  C   4.73910161450929     -0.76877669832923     -2.88797091302928
  C   5.03348004148654     -1.13130104058220     -3.99130021479639
  C   4.09267244081487      1.18381747940435     -1.48237554776895
  C   4.74906945201442      2.20039855140112     -2.09091883977215
  O   5.80548039368696      2.04094522756105     -2.92911726140540
  C   4.31624758475657      3.52217228830817     -1.78118302191419
  Cl  5.09393593972315      4.81644281456899     -2.58683066266073
  C   3.33049465908414      3.76303017820996     -0.86156668751949
  C   2.90448688993005      5.07618650006127     -0.52982487826836
  C   2.53020255604486      6.17822660323650     -0.24404969521781
  C   2.68362695646626      2.65610925759707     -0.14966935507341
  O   1.88989595559588      2.78441206625257      0.76314243896131
  N   3.05737713063805      1.40464451344896     -0.61527036429597
  H   0.64669336756360     -0.87654758099815      0.21770117633587
  H   0.57923468694847      0.38990524480045     -1.01643226745342
  H   0.58313372301122      0.83390878337331      0.69822697182082
  H   2.88868329303763      0.03248282121113      0.94764706961698
  H   2.37055771594249     -1.03695064428674     -1.84996568390939
  H   3.21439859440676     -1.86229451653064     -0.53304316678585
  H   5.19797838558646     -0.52145837271978     -0.86927930634136
  H   5.28859564178161     -1.46300443004011     -4.97030625655268
  H   5.78172879213350      1.16092745930451     -3.32900355226699
  H   2.20007783282426      7.15624564575531      0.01201283514042
