30
Coordinates from ORCA-job 23618optt
  C   1.70891923085873      0.16423335364368     -2.98911087331806
  C   2.66639972211086      1.18897578451084     -2.45154187074801
  N   2.26226522975878      2.03845210182063     -1.33659641122492
  C   3.28703038289534      1.01590943527529     -1.11065391964595
  C   4.62102980291191      1.54679361490475     -0.78340535837286
  C   5.83542324619323      0.93736221226734     -0.49282028517499
  C   6.23665553146582     -0.41733495801258     -0.38239886943364
  C   7.53238154123032     -0.67711900082957     -0.07035990847803
  Cl  8.02617462519641     -2.34369982548525      0.08708884453842
  C   8.51697225522236      0.34725397322115      0.14763436800518
  C   9.93580749049089     -0.04750482496844      0.47525330297790
  N   10.82110836770184      1.10564403327662      0.57227956706960
  C   8.13713588036423      1.65283956355546      0.04986785930832
  C   6.79577067026707      1.98345245604613     -0.27519003460665
  C   6.12936204392819      3.18796803357134     -0.44259287911079
  N   4.83841926914625      2.88581473758540     -0.74457550837239
  H   0.94766771768127      0.63312667755917     -3.61515025059365
  H   1.20609909185525     -0.35479895056459     -2.17026332037937
  H   2.23249072824859     -0.57850329172299     -3.59178655881886
  H   3.25847996959037      1.71891110891124     -3.19027406135432
  H   1.36569686456810      1.74481094379755     -0.96359145350421
  H   2.99433246966285      0.12075927332857     -0.57129104719653
  H   5.53979757390202     -1.23079089063964     -0.53655765408210
  H   10.26564347436353     -0.78622620675996     -0.26487831186412
  H   9.94450906282005     -0.56535996252571      1.43827129875681
  H   10.96090418364795      1.52058417247427     -0.34245650633847
  H   11.73060531827010      0.81810774319164      0.90920265167226
  H   8.86744907018198      2.42833547205210      0.24040006620693
  H   6.46771231213582      4.20599094340554     -0.36360100807764
  H   4.08275687332984      3.53801227711000     -0.89790186783982
