27
Coordinates from ORCA-job 23613optt
  Cl  2.70633842479099      0.17771909196090     -2.67032189086546
  C   3.54378900360201      0.10846842742216     -1.17744197987676
  C   3.53655103323538      1.09080623498617     -0.27674065339391
  C   4.28076427554744      0.93664688670759      0.97448701215290
  N   4.36896024429179      1.79769727391752      1.91209866492906
  C   4.96138750207557     -0.35142621129163      1.08883250241336
  C   4.90703538002562     -1.26553913401334      0.11906683148389
  C   5.55494957550816     -2.60785815269572      0.11268154393878
  C   4.52438838006470     -3.74224264239530      0.08194688230248
  N   5.14421779417827     -5.05234990179478      0.04369532107901
  C   5.72963561661934     -5.55950819687968      1.16701256927608
  O   5.69285913148792     -5.00334406211832      2.24208355231071
  N   6.36123690868049     -6.78419013468735      0.97993025797239
  C   7.00073673498990     -7.44893110578157      2.01911836233467
  N   7.55146568121891     -8.58321585861879      1.96555169030286
  O   4.19734638924686     -1.05602552418322     -1.04089038279231
  H   2.98046096086127      1.99410246764335     -0.48003361981037
  H   3.84270316519710      2.64058301245841      1.68653429036530
  H   5.52572676323396     -0.55698744872075      1.98684245889654
  H   6.16983000843038     -2.71052442297501      1.00550186768655
  H   6.20104582825031     -2.68366985472719     -0.76655717081230
  H   3.88017420576025     -3.64977186475948     -0.79101635701836
  H   3.90187182124139     -3.69074913453484      0.97474687004827
  H   5.36593217809653     -5.45207949225208     -0.85235043755860
  H   6.28584445499145     -7.25512817395158      0.09160086155374
  H   6.99009640485411     -6.87404652036783      2.94025609436009
  H   7.48665213351982     -9.00943555834757      1.04036485872137
