28
Coordinates from ORCA-job 23629optt
  C   1.33189858925891     -0.31863647105354     -2.64014173438097
  C   2.09075394551488     -1.43140343345524     -1.92437541988735
  C   3.08198182739349     -0.91660194640829     -0.89839845628818
  C   2.57130660797005     -0.73429694582789      0.47991579924855
  N   3.49573559901712     -1.82105420003462      0.16224378882955
  C   4.16126639247316      0.02016472338384     -1.44822673365466
  C   5.26326136999318      0.34452539621338     -0.43978009535846
  C   4.78124152459221     -0.58461727827709     -2.67900210101063
  N   4.61624142192032      0.00877682597213     -3.81955425891861
  C   5.19096762233935     -0.53007049077350     -4.95199095591463
  O   5.11180595570473     -0.09003773351056     -6.06490932628868
  N   5.93579952054627     -1.71662715855370     -4.72601077369745
  C   6.03047021279821     -2.25168049549760     -3.50067749770313
  Cl  6.94886265881928     -3.70165282409053     -3.39365287155766
  N   5.48942658304159     -1.75062828885990     -2.45706281429172
  H   0.57333694992427     -0.73269557141200     -3.30408484647952
  H   2.00266375074940      0.29318451854855     -3.24400112689030
  H   0.83274626589568      0.33023942499425     -1.91756455897043
  H   2.61844001730673     -2.05279735702490     -2.65612934174798
  H   1.38594363606364     -2.09070056801471     -1.41004155869870
  H   1.52622241322641     -0.96978263223384      0.64618640833050
  H   2.97455929600735      0.02864868383405      1.13251155522665
  H   3.01134716128872     -2.70904002072863      0.08582463721564
  H   3.67667359355434      0.94024368113723     -1.77661099729808
  H   5.72336145048786     -0.57304605675064     -0.08032314078672
  H   4.85410294325034      0.88814047409622      0.41051330368306
  H   6.02297789281879      0.97484686452261     -0.90329690585047
  H   6.37960479804369     -2.14540112019507     -5.52635997685957
