34
Coordinates from ORCA-job 23620optt
  C   1.27053801633004     -0.02771300451747      0.03980797633498
  C   2.76588251520152     -0.01516537408412     -0.30547758017232
  C   3.16743408669533     -1.22860891517238     -1.13918721657887
  C   2.59740423973825     -1.56730372275154     -2.36966812019065
  Cl  1.46301207110565     -0.52602016221058     -3.17563205077923
  C   2.90652445626264     -2.73389229677804     -3.05828398505181
  C   3.80912457589584     -3.63484886052843     -2.52903871705595
  C   4.40340590348375     -3.34524306994032     -1.31550271205606
  C   4.11251105561191     -2.15790778479718     -0.64690971445463
  C   4.94193031102361     -1.89593025922170      0.57249438860204
  O   5.36656510110279     -0.81009589556296      0.88084942782309
  C   5.28073198519854     -3.06399090385366      1.38886232116465
  C   5.55468019148647     -4.00158153198785      2.08247407255833
  C   3.30340905325619      1.38877900074411     -0.79019310992383
  C   3.86609928151106      2.10134160020168      0.44644948906908
  C   4.42847522245038      1.22791177660417     -1.81442610761799
  C   2.21905591205351      2.29816434248599     -1.37910883008812
  H   0.98578180865999     -1.00260176270600      0.43860077901240
  H   0.62775994698369      0.19797949230943     -0.80639873842281
  H   1.07625335535017      0.71541124907532      0.81540955954508
  H   3.26104496399915     -0.17123557366711      0.64718139863322
  H   2.42617518827534     -2.91966464213342     -4.00912835575053
  H   4.04765380493899     -4.54620452369648     -3.05975350949799
  H   5.11826411339477     -4.03306660564833     -0.88353233244128
  H   5.79777190324390     -4.83056410022886      2.70505645949830
  H   4.70595597340406      1.54713409908552      0.86456611755930
  H   3.09898579097189      2.20363309253525      1.21881686800871
  H   4.20730855836013      3.10454949976929      0.18236245961175
  H   5.22552353382348      0.59297277123155     -1.42340763924711
  H   4.85677350687387      2.20517115418429     -2.04691008906929
  H   4.06025477992528      0.79429447178172     -2.74667532429903
  H   1.43041544482336      2.50188255475422     -0.65362472654107
  H   1.76315303631582      1.88649401239937     -2.27601977920245
  H   2.67314031224842      3.25491987232457     -1.64605267897986
