26
Coordinates from ORCA-job 23624optt
  C   0.84341337160601     -0.03302501606777      0.11969007522601
  C   2.33430132391139      0.24507076725172      0.03326976382258
  N   2.92221904695326      0.16866366116487      1.35908126909350
  C   4.11996734537512     -0.12384273789420      1.53174157630674
  O   4.65101002921110     -0.34876823886553      2.77235705608608
  N   5.99317151096983     -0.71466073539726      2.67289126709366
  C   6.27419497556148     -0.69439689010397      1.43358683621737
  N   5.19504837284595     -0.34628375646278      0.64125857754359
  C   5.31676371558156      0.23262274968320     -0.64091952848644
  C   5.23919452375544      1.55444163534716     -0.84154031113525
  C   5.07884877633322      2.53306254240293      0.28038935365400
  C   5.24279024501941      2.13272332705484     -2.21189411810613
  O   4.98534273543253      3.29296695251189     -2.38751666136093
  N   5.57738490958522      1.31905031322399     -3.31719644412491
  C   5.70981945551662      0.07437559464169     -3.25104211651478
  Cl  6.10381293914650     -0.82671406812422     -4.67616333466060
  S   5.54113369662319     -0.98186647171484     -1.87814484406083
  H   0.38007414869420      0.04487539278285     -0.86422256072303
  H   0.36942671232961      0.68244403219450      0.79067663477006
  H   0.66699651380966     -1.03393554307196      0.51288498371088
  H   2.49507335970337      1.24272673585727     -0.39044576896201
  H   2.80302446268251     -0.47163255668486     -0.65253362574343
  H   7.25120009695711     -0.91829546579069      1.03388930297104
  H   5.47441738942428      2.14641916498008      1.21810917184165
  H   4.02313415655017      2.77325098766283      0.42946253367235
  H   5.58623618642115      3.45972762341826      0.02033091186885
