25
Coordinates from ORCA-job 23625optt
  C   1.06528305537539     -0.05875803420790      0.02007637124138
  C   2.58026695211745      0.05214906813341      0.03063356451605
  O   3.12702539008464     -0.91301970401941      0.96913624091456
  C   3.15207443900345     -0.54203141157374      2.25443927974183
  O   2.75509661419007      0.49628081142865      2.68570019632982
  C   3.19210509768324     -0.22208155359029     -1.30314207242880
  N   3.69553469487421      0.77783355014281     -1.98725456568776
  N   4.08611218647647      0.27896150209593     -3.17229557744626
  C   3.84469677721896     -1.04869061676892     -3.27509020834723
  C   3.25774695600521     -1.43155829583831     -2.06043775794361
  C   2.92424724294680     -2.79488987834585     -1.90775709596808
  N   2.35109173957061     -3.27002227417349     -0.76581301171527
  C   3.18185821917710     -3.61231562853578     -3.00383246187055
  C   3.76495242198983     -3.06510412114434     -4.15214125194382
  Cl  4.06738433135839     -4.14980795149023     -5.47537620066201
  N   4.11527291047846     -1.81696734939829     -4.33361347460118
  H   0.66826223823454      0.14286553635841      1.01424583407869
  H   0.75497365833526     -1.05289868633488     -0.30506447440111
  H   0.65842878572948      0.67456410660644     -0.67562573435143
  H   2.88790354992518      1.04632897262668      0.35031244336276
  H   3.60102147471123     -1.34034135044455      2.85741164844304
  H   4.50392029816487      0.87671025950769     -3.86481898836647
  H   2.49689109389422     -2.73748394463214      0.07865983197750
  H   2.30536248904410     -4.26859666340735     -0.65121105197727
  H   2.95048738341078     -4.66712634299454     -2.97614148289478
