28
Coordinates from ORCA-job 23634optt
  C   1.04387702109970     -0.07216480632604     -0.79322363899543
  C   2.40742339181705     -0.07340660805566     -0.15565054322994
  N   2.86690845690898      1.06385489435619      0.21813584414813
  S   4.35594785702288      1.29916748249017      0.86550278285881
  C   5.23094161661060     -0.22547014844328      0.64320869545418
  N   6.48682730892959     -0.11366895660849      0.60291196629743
  C   7.41991804999872     -1.20758642350463      0.40317202807653
  C   8.73250238193513     -0.63788391371760     -0.09465160207122
  C   9.55241152287474      0.18389867369092      0.92671760902876
  N   10.57706107091755     -0.85910521107600      0.83978020553294
  C   9.90481285236019     -1.63215438620069     -0.06088534242031
  O   10.15119409925484     -2.68419827848284     -0.58135475155960
  C   4.33853409177032     -1.39960849974616      0.57366120953532
  Cl  4.99118685770604     -2.88922798147899      1.18254030462294
  C   3.06895369625425     -1.35915986380994      0.11181346683742
  C   2.23055335177407     -2.59654190049115     -0.03761978981413
  H   0.68489521591089      0.95139980901226     -0.84936552618613
  H   0.33524288986584     -0.67081436209953     -0.21841242273081
  H   1.08571041126489     -0.49073584671141     -1.80083567640827
  H   7.05476430222868     -1.94599834280752     -0.31451930765497
  H   7.58977283691627     -1.73240812339242      1.34919154971491
  H   8.60778465970086     -0.14919414676294     -1.05997474226750
  H   9.08261229174480      0.27154127378523      1.90663691047779
  H   9.88376584737548      1.16110098919760      0.57943483053958
  H   11.46155479268805     -0.99148917522137      1.30517900604187
  H   2.83505886079022     -3.49736912527749     -0.02651664531748
  H   1.66950158109191     -2.56544380787988     -0.97051618149567
  H   1.50428268318740     -2.66333321443834      0.77663976098487
