26
Coordinates from ORCA-job 23630optt
  C   3.58994320235069     -0.69994716904149      1.06589519972318
  C   2.54843429249756     -0.30606517151793      0.02304815208687
  N   2.52894369993152     -1.14467424229521     -1.18824122305051
  C   3.81829596109709     -1.19076249089505     -1.89391217078627
  C   3.58985277993206     -1.09654523965817     -3.34568632579392
  N   3.43483036377829     -1.09292295869405     -4.48067733569084
  C   4.46235972316753     -2.58187901733520     -1.57980633287322
  O   5.22269976545883     -3.13338063632009     -2.60812977103566
  C   3.21453195119324     -3.35059637127801     -1.20116192204584
  C   2.18752668016418     -2.51179076254557     -0.98356486040088
  C   0.87487375386947     -2.96263856622131     -0.62995367227983
  Cl  -0.41100023863451     -1.80643478902967     -0.56002427331394
  C   0.56459816445380     -4.26422304948939     -0.39498333672764
  O   -0.65823312179417     -4.69563920712796     -0.07491610870167
  C   1.53057200719593     -5.38410488920095     -0.48647233886545
  O   1.22566244813589     -6.51766673355471     -0.23539558095048
  S   3.18068371995551     -5.05439634023961     -1.05915676701375
  H   3.47837414874690     -0.07917198481030      1.95490317006557
  H   4.60867282777386     -0.56084446625279      0.69906319284426
  H   3.47040431687143     -1.74238223651734      1.36718730548284
  H   2.70328268480617      0.72211223809954     -0.30686457820557
  H   1.55231718845738     -0.34941741473834      0.45932948867081
  H   4.45832878886654     -0.36254339094478     -1.59282428983175
  H   5.14128371948326     -2.50218945219487     -0.72741513661959
  H   4.69701929504110     -3.19097682594051     -3.41793121515411
  H   -1.27325812279956     -3.94991883225621     -0.04430926953258
