24
Coordinates from ORCA-job 2364optt
  Br  1.01572510641554     -0.45930269565719     -0.63935213635568
  C   2.86952807702580     -0.29609251422751     -0.36265363228167
  C   3.58038504343766     -1.28516797831965      0.19776440863450
  C   3.12853492487760     -2.63603908559124      0.68965793895771
  C   3.19602770850976     -3.69385769433887     -0.45034186662937
  C   4.56898033516741     -4.40283840853749     -0.45149438315282
  C   5.76687203473422     -3.44864091603098     -0.25141542074014
  C   5.51747256610378     -2.46210609129102      0.93684778452696
  C   4.26875105873048     -2.96345270366333      1.65863999101829
  O   4.19846077994260     -3.51818089688922      2.71196660217211
  C   5.01330876468856     -1.15946994686293      0.37162650309843
  N   5.80072594935901     -0.18438308181823      0.09571587531794
  C   5.33915955787655      0.99535889224052     -0.45276077362781
  O   6.01311150717649      1.94651516221406     -0.70045566862497
  S   3.56555320824746      1.18697545191157     -0.87728980574413
  C   4.74171662124538     -5.18784039769527     -1.67230219711234
  N   4.87634161999774     -5.78660073626113     -2.63961475886580
  H   2.15520177404795     -2.62520856718255      1.17322860508015
  H   3.02060006156513     -3.20520988178233     -1.40948839033043
  H   2.41789236297069     -4.44360116696672     -0.31577430565784
  H   4.57271047402144     -5.11260993556689      0.38095297052534
  H   5.95928134815424     -2.88270479810020     -1.16371619826566
  H   6.65569188555775     -4.04150306733239     -0.04531028417867
  H   6.39396723014675     -2.34803894225102      1.56656914223588
