22
Coordinates from ORCA-job 23641optt
  Cl  1.05150323264629      0.16439698592867     -0.15449367103397
  C   2.78805227500488      0.10453343464776     -0.13446872736065
  N   3.38289495941291      1.27200942285418     -0.13208325708315
  C   4.71361504808819      1.25233742548224     -0.12903299613844
  C   5.48444759069862      0.10940538285381     -0.10915942536097
  C   6.94130452564577      0.48441725064793     -0.06230306219199
  N   6.95871933492011      1.93220407262561     -0.34065165202103
  C   5.60856983521213      2.46315552448134     -0.10060139683310
  C   4.84331095994428     -1.12208135520623     -0.09451333891652
  C   3.43735313313026     -1.14874690507053     -0.11965401782163
  C   2.71084412502084     -2.39553253220244     -0.12767461487331
  C   3.25823585553819     -3.62031271227501     -0.10886668320525
  C   4.68447936583134     -3.92072305037129     -0.07412495066569
  O   5.14824212574246     -5.02880190215398     -0.05947842657174
  S   5.83533787438164     -2.54630615516025     -0.04800947669843
  H   7.54972625994664     -0.06062324874534     -0.78567234867856
  H   7.35530054918112      0.27636499053852      0.93001498388457
  H   7.20510709483030      2.07750575910076     -1.30987966318709
  H   5.32873336496696      3.20637455758305     -0.84608691559459
  H   5.54400817589812      2.94187558685100      0.88163119480325
  H   1.63196663027146     -2.32610212897072     -0.15258428748333
  H   2.63124768368743     -4.50335040343907     -0.11930726696836
