29
Coordinates from ORCA-job 23648optt
  C   2.90778768161399     -0.31863272821102      1.65401429891535
  C   2.53158734763554     -0.02253884156895      0.21825458890441
  O   2.95394183303056      1.28982467635848     -0.06730947563730
  C   3.07818672715661     -0.99626570856474     -0.85565274346253
  C   2.55535399302609     -2.41396438431820     -0.66054409948861
  O   2.63578121041351     -0.49193814176700     -2.11350545887125
  C   4.59312745488018     -0.95983780748888     -0.90701355906686
  N   5.19056009257801     -0.26166193961992     -1.82026606557873
  S   6.84239445629513     -0.33584929260645     -1.69601548807308
  C   6.82585745733015     -1.36825692372878     -0.32774073991502
  C   5.49201396414906     -1.63910236433059      0.00505950847015
  N   5.17308744509383     -2.42867249387584      1.04344533219018
  C   6.13764108657776     -2.92832205421593      1.74601575766844
  Cl  5.69391243314859     -3.93751484761781      3.09582223061578
  C   7.52770769142614     -2.72189088162445      1.50566106439505
  N   8.47620364583578     -3.25731684098852      2.34024595432641
  C   7.85753555581209     -1.91737019081714      0.42995439038111
  H   2.37864654449418      0.37763968086576      2.30400045424472
  H   3.97710595596206     -0.17592701366623      1.80221732070179
  H   2.64642218694063     -1.33652418799903      1.93953479441294
  H   1.43573632219879     -0.09153559293613      0.11901321270357
  H   2.95999771796351      1.39238583405838     -1.02830099083491
  H   1.46299319578341     -2.39351395266461     -0.61812703760601
  H   2.93359367997888     -2.86167028137415      0.25461708445484
  H   2.85867599198958     -3.02860088732330     -1.50833675353142
  H   1.68741086398683     -0.65127999194544     -2.17329909045023
  H   8.19503193939685     -4.02881862931104      2.92285485630553
  H   9.41731644112299     -3.30759222682609      1.98839701668148
  H   8.89738908417919     -1.71925198589234      0.20100363714420
