30
Coordinates from ORCA-job 23640optt
  C   0.83894325507517      0.28773848589492     -0.09824769124571
  C   2.36171192498082      0.24157859076581     -0.09271503510092
  C   2.87052832940568     -0.58248216491729     -1.26054881093066
  O   4.27785707133523     -0.70632406005788     -1.14726536659079
  C   4.87436213215294     -1.47768151004066     -2.15706780682984
  C   6.38216735601179     -1.37612007043272     -2.01646170252600
  C   4.43297296126266     -2.89066528424839     -2.05924471029101
  N   4.08571736302780     -3.97842791997475     -1.96926156529602
  C   2.97077849333373      1.65471016203918     -0.13615942559828
  C   2.81549093244101      2.36506169214336      1.16915005244483
  C   1.89067935565254      3.29052170008836      1.50534257474621
  Cl  0.72127098475708      3.86078082576222      0.39300876643946
  C   1.86566642732820      3.82905780446793      2.86009276840242
  O   1.07502761844757      4.64064069672458      3.26098777675965
  N   2.86947339149980      3.32524955754467      3.75211283284755
  N   3.71368572792201      2.47520470102128      3.39463003222917
  N   3.69546371944181      2.00295849979432      2.14867924292276
  H   0.41826367932396     -0.71548682724339     -0.02680732302447
  H   0.47303676587347      0.75175514479244     -1.01696934294327
  H   0.46087941263831      0.87339071690756      0.73996067237255
  H   2.70380194772017     -0.25899700226656      0.81914358520402
  H   2.61554956055109     -0.09817168978571     -2.21362658679853
  H   2.40399856546214     -1.57364690913961     -1.24450690907681
  H   4.55901958554810     -1.11421621753635     -3.14312800909896
  H   6.68762852966494     -1.74450545901437     -1.03866294120095
  H   6.67741038738759     -0.33307476790019     -2.11580246304270
  H   6.87607444461596     -1.96490904020596     -2.78766740981319
  H   2.49145733362697      2.23674914403567     -0.92364165562519
  H   4.03564924640192      1.58250740394030     -0.36900812044089
  H   4.41743349710945      1.32280379684121      1.96368457110555
