27
Coordinates from ORCA-job 23647optt
  C   1.83290465773816     -0.35621034537972     -1.88017721228217
  C   3.07084683190253     -0.55438955650376     -1.04232225494736
  C   2.83686051391646     -1.12771720640597      0.33040971151393
  C   4.36725919222536     -0.82241400565529     -1.74295834522315
  N   4.11796699330380      0.44827523800665     -1.11028481676887
  C   4.01802718261704      1.63131369669770     -1.79161296435216
  N   3.00346300293670      2.43543767823374     -1.46092621367046
  C   2.93026889625958      3.59536702802371     -2.06315963900411
  Cl  1.60097889905791      4.60121309395411     -1.64914942328788
  C   3.87051783654201      4.02642745303625     -3.00742133591028
  Cl  3.75354229040405      5.53180723745979     -3.80001745772204
  C   4.88877470985149      3.11595677596911     -3.25443787805832
  N   4.96732185500331      1.93038476659122     -2.68143321389967
  S   6.18555943080878      3.49413937629106     -4.45785777986096
  N   7.29463224388284      2.32185280425721     -4.28373831438182
  O   5.58035882017638      3.32407941304289     -5.73748366728214
  O   6.79105166676071      4.71870533967039     -4.05234174649955
  H   1.31476705598165     -1.30887731207662     -1.99424363253726
  H   2.07518488955828      0.02481068083524     -2.87289662613843
  H   1.15757751954680      0.35209836926976     -1.39900902544907
  H   2.36086997347666     -2.10646297521359      0.25590213916466
  H   2.18155778255071     -0.46935497680077      0.90286066476024
  H   3.77754856007301     -1.23138935000953      0.86924636397345
  H   4.35961690093615     -0.83934576032832     -2.82747615945946
  H   5.11862981976598     -1.44049124064171     -1.26719645202402
  H   6.93851664897199      1.39719916932445     -4.49183739470551
  H   7.79439582575139      2.36658460835191     -3.40443732594740
