29
Coordinates from ORCA-job 23654optt
  C   3.48449602829793     -0.20460486544040      0.96175473505556
  C   2.39424663000726     -0.02251206255295     -0.10096061643403
  C   2.03791501291951      1.44860689083731     -0.26670635333530
  C   2.85012281759576     -0.66291400360361     -1.39585195428564
  N   3.34732361519333      0.12037074174231     -2.30382848560382
  S   3.93486425669258     -0.38924671127305     -3.74583553722283
  C   3.74260494349771     -2.09214493474715     -3.77944731269535
  Cl  4.29763213546017     -2.83246381875789     -5.23965864179764
  C   3.19781015345241     -2.78148979721803     -2.75644603702875
  C   2.92137767414397     -4.17388265871475     -2.54334700561839
  O   3.16473326298300     -5.20986776747402     -3.38093277513885
  C   2.35014259739799     -4.31896356856037     -1.30600163982951
  C   1.93690884421327     -5.62909552775738     -0.72771406539030
  C   0.61091779149249     -5.64024211428798     -0.00800791494938
  O   -0.06812477970103     -4.67868656347226      0.21511578623953
  C   2.24562155287787     -3.02643194565993     -0.68855096881569
  C   2.74580716783867     -2.07847155528491     -1.53614918594288
  H   3.14504650577650      0.19717631002306      1.91725212043131
  H   4.38556251596028      0.33548714582148      0.66461278923871
  H   3.74219814754088     -1.25451763205651      1.09946306421325
  H   1.50431120362371     -0.56983145770354      0.22068722717549
  H   2.91565224674116      2.02585095750675     -0.55630214799299
  H   1.65833417162107      1.84313244692286      0.67653294989438
  H   1.27710722662658      1.59008051026738     -1.03421716539767
  H   3.53115390887546     -4.88910990420920     -4.21158873672727
  H   2.67220664167469     -5.99912094201730     -0.00003864458109
  H   1.90030852956626     -6.39623677158104     -1.50658860528739
  H   0.29035445333059     -6.64296340018348      0.33681214181180
  H   1.81536474429990     -2.85190700056535      0.28494298001475
