25
Coordinates from ORCA-job 2365optt
  Br  0.97504568180736      0.11281163918998      0.26733863949052
  C   2.84661646222092      0.06514627465671      0.15544732155079
  C   3.54411987020904     -1.08945661269554      0.08436956562246
  C   2.95355535661519     -2.47644010689080      0.04979736760069
  C   3.49404137595449     -3.22724492341308     -1.19154856828780
  C   5.04851188679432     -3.24994268697371     -1.18990094410364
  C   5.56141218959070     -2.51834575874212      0.06220808367786
  C   5.02007545255897     -3.23458390610763      1.30779941218875
  C   3.50151226600904     -3.27407917186140      1.23379421253179
  O   2.80704707082931     -3.91241256408626      1.97200254138631
  C   5.00043577205816     -1.11720884248985      0.05224961967673
  N   5.79071528078196     -0.10976771996538      0.03670453443394
  S   5.24190523195350      1.44010921663729      0.05687671723094
  C   3.47237119453234      1.40187793538586      0.14109693189125
  O   2.87966676348743      2.44726386232527      0.17709061462133
  C   2.95529767566260     -2.64159106125127     -2.47740003592680
  O   2.12890269364573     -1.77873622043859     -2.53457690354382
  H   1.86869431392144     -2.46919059217798      0.06825153748369
  H   3.11775213523527     -4.25500619006444     -1.15620935056026
  H   5.44357794077825     -2.76435094457136     -2.08466873200239
  H   5.42036936424855     -4.27444547961120     -1.18844455299227
  H   6.64789640331353     -2.46480306103280      0.07057732707919
  H   5.30955541115193     -2.71630457438540      2.22492944599806
  H   5.39007109658982     -4.25884768447047      1.38180913905196
  H   3.38985111005009     -3.07645082696579     -3.39959392409929
