25
Coordinates from ORCA-job 23659optt
  C   1.50457048641504     -0.39981961731091      0.18758928305678
  C   2.62214090580639     -0.40961997337134     -0.84508863494384
  N   3.70115416544547     -1.33322675004653     -0.50447302285744
  C   4.50633618814361     -1.28993117500633      0.57703112566734
  C   4.78798504716011     -0.19253487960753      1.38526387198024
  C   4.32918355055789      1.18853964736578      1.10954962616019
  N   4.65706034415212      1.87305638341034      0.08041223784222
  O   5.47039223272645      1.17206279053218     -0.77573112023572
  C   3.45419594961206      1.84183875256756      2.04295115798656
  C   2.70091950775355      2.33093325841347      2.83566211768280
  C   5.67695460929408     -0.46334159962671      2.45838308887381
  Cl  6.11435990704504      0.88684971135658      3.46223592927141
  N   6.23358692673071     -1.58272197075953      2.76914757652832
  C   5.97693096001362     -2.68007320327882      1.98855947726009
  O   6.42097594860923     -3.78759300759621      2.15878759430580
  N   5.10955995742756     -2.46288535656418      0.89854732379372
  H   0.74148329409940      0.32447599820774     -0.09747889380532
  H   1.87930928920170     -0.11966691580800      1.17173213595751
  H   1.03978497368148     -1.38350305056939      0.26272483082341
  H   3.02518462945566      0.58768948679108     -1.00008280402982
  H   2.24334085663408     -0.74723122427578     -1.80902860792441
  H   3.64835814158280     -2.23161248161330     -0.95588115619082
  H   5.69362430710044      1.81975963013027     -1.45253502677747
  H   2.05087178917311      2.78733285443358      3.54384187964192
  H   4.91473603217833     -3.29877730777401      0.36588000993270
