27
Coordinates from ORCA-job 23650optt
  C   1.18778852735842      0.31873584168664     -0.04318589514991
  C   2.65138576167520      0.12027885198410      0.21300516745968
  C   3.49464328487664      1.08440989324259      0.67760270794605
  O   3.24541205128038      2.37743708325021      0.98294078537529
  S   5.10209768064122      0.52403669898647      0.90694785578041
  C   4.66386739794421     -1.05816606914517      0.35435656940493
  C   3.34015148384432     -1.11768764844564      0.01362826761941
  C   2.66350750266373     -2.35371433221305     -0.52250553292289
  O   2.32708242011566     -3.27768349867717      0.48917941978755
  C   5.65909667463214     -2.13232521194697      0.35600263849596
  N   5.22431559195256     -3.38808131757471      0.51385551432848
  C   6.10732373026640     -4.37617903649437      0.54543948965862
  C   7.47989763408452     -4.19474272113534      0.44751782838488
  O   8.37492422238007     -5.20372257204136      0.51232678507982
  C   7.93498325674187     -2.88909239042216      0.27469701695200
  Cl  9.61867526090784     -2.58867308264735      0.11689196286965
  C   7.02343803722534     -1.85627919310611      0.22182458821492
  H   0.81703229399100      1.24864262096657      0.39261294049646
  H   0.61029380050211     -0.49096694302449      0.40465859444096
  H   0.95913678063628      0.34351241346870     -1.11071328174833
  H   2.33036710696698      2.58514525402878      0.76437143961992
  H   3.30888592381754     -2.82000746056501     -1.27349368186054
  H   1.73171609552567     -2.07448080102248     -1.01433249795115
  H   3.17803625983553     -3.58217796144483      0.83829356990149
  H   5.71059833805294     -5.38070260077095      0.67200984800510
  H   7.91811985518179     -6.04312392596195      0.63258361184010
  H   7.37222302689956     -0.84439189097492      0.06548428797115
