34
Coordinates from ORCA-job 23656optt
  C   1.46472239752639      0.47730212232702     -0.34753024503774
  C   2.83031812586538      0.11197044695214      0.23047982933049
  N   3.48621677330977      1.21094123970749      0.93881766394305
  C   2.81155590688860     -1.13358715000709      1.16888968976326
  C   2.17934539912352     -0.73950462719793      2.50849270205325
  C   2.00221724060883     -2.26019851489128      0.51216229176249
  O   2.44354910394472     -2.56089463609475     -0.78722156853545
  N   4.19981751194826     -1.57577838556018      1.16088442878617
  C   5.01014898772287     -2.03261048591036      2.01643187790580
  C   4.80764010981242     -2.56538983425364      3.40116605659644
  N   3.56093808820706     -3.00549389528960      3.76750953249411
  N   5.73673951403896     -2.70738888848937      4.27739505215451
  O   7.01533405794025     -2.33061298754085      3.93720277988116
  C   7.35647558831944     -2.20065387274732      2.64220181264198
  C   8.83343479820362     -2.12358444459805      2.46887114204110
  C   6.42662438434769     -2.14370572642779      1.67350821921353
  Cl  6.88734555016111     -2.00670191886734      0.02407092099412
  H   1.55987464207931      1.39625923071282     -0.92780521029999
  H   0.71837684409418      0.65821928940054      0.43008029832565
  H   1.09475382524455     -0.30151933057707     -1.01460815795657
  H   3.48427068257984     -0.15709566900291     -0.59844709548615
  H   2.83830299794577      1.67445827454848      1.56700256923214
  H   3.80566760912659      1.91056713345688      0.28070527662482
  H   1.40857770434462      0.01440983040037      2.34204315705657
  H   2.92640911646224     -0.31918420814716      3.17981054170809
  H   1.70179239702974     -1.57401116387961      3.01497135331108
  H   0.95297559394311     -1.96926557399392      0.44362419654481
  H   2.04912291580089     -3.15378159572667      1.15079157286276
  H   3.40965715220391     -2.57764629252998     -0.76505824354919
  H   2.97381964105917     -3.31453270394652      3.00990183334145
  H   3.55980447260981     -3.61036560345478      4.57549397507155
  H   9.27731968883021     -1.70972027280351      3.37239781241495
  H   9.09129353230477     -1.50824087902395      1.61106831845471
  H   9.24255764637230     -3.12365890654407      2.31169561635502
