28
Coordinates from ORCA-job 23664optt
  C   0.85958631123748     -0.36252068239422      0.34932407155004
  C   2.32711816508477     -0.02572724998462      0.04174230047496
  C   3.26351486396602     -1.12149704143709      0.57170538785761
  N   2.54461251866813      0.24743778662525     -1.36260832904727
  C   2.37433971943228     -0.61534638145738     -2.39360092894459
  N   1.95586900861706     -1.85727468105502     -2.15086454959456
  C   1.79135046797372     -2.69738886886756     -3.16717213734543
  C   2.03377083749487     -2.35116286898620     -4.48202235404369
  Cl  1.80051819720058     -3.50777000491351     -5.74613576331342
  C   2.46981869368074     -1.06440891662170     -4.76213218158164
  C   2.64911773550762     -0.17283228415753     -3.72065232564370
  C   3.10411623410454      1.15884097076393     -3.94228188532656
  C   3.49025910871489      2.28866120168220     -4.06458440454271
  C   2.65893983903462      1.28210983854440      0.76320358517445
  O   2.98354173500064      2.28980291762479      0.18993239642810
  C   2.55304824908290      1.25405990011352      2.21922841169060
  C   2.47375849950563      1.24293649185490      3.41398731065422
  H   0.59441993437341     -1.28376450850185     -0.16394091760744
  H   0.20636249920407      0.43994436358956      0.00455777467083
  H   0.72131026391801     -0.49768759050160      1.42163229517079
  H   3.03560348894469     -2.05497349657877      0.06256411375323
  H   3.12054660578724     -1.25475892205397      1.64346981587086
  H   4.30421982280082     -0.85671407530082      0.38120763323786
  H   2.85274893492347      1.18583732896334     -1.58159786920592
  H   1.45085307894722     -3.69768236857422     -2.92447015700164
  H   2.67259189545886     -0.75709758636888     -5.77925953502517
  H   3.83507762845947      3.28825870391226     -4.18411551394865
  H   2.40698566287621      1.24271802408080      4.47688375563887
