22
Coordinates from ORCA-job 23672optt
  Cl  1.00079861325625     -0.01226334949368     -1.03243295679008
  C   2.65129686262678      0.01869572915430     -0.58049571032620
  N   3.34972134856335     -1.03708739197245     -0.66295879632819
  C   4.67505259184889     -0.92288695547668     -0.28166257048575
  C   5.21158730303393      0.22225315332655      0.13886059659197
  C   6.66052218315622      0.15206934721097      0.47677277557386
  C   6.92871941234575     -1.36684216952910      0.34555369895468
  C   5.68000426130145     -2.03478390677329     -0.29443058015779
  N   5.35696842571076     -3.14529378530416      0.59016791416002
  C   6.02444416919764     -3.19168391234365      1.77157952123209
  O   5.86165449505151     -3.93993216197133      2.69555509542795
  C   7.05535593584945     -2.04511808008768      1.69812643205338
  O   7.79397819733480     -1.73581513207986      2.57977506779031
  O   4.50277423886204      1.36237220908282      0.22966703403033
  C   3.16054773921571      1.33996577290507     -0.10059945091239
  N   2.43762372953036      2.35668645310084     -0.00236283361487
  H   6.87906486716230      0.51346817359103      1.48380648617652
  H   7.25789295174053      0.74113552804282     -0.22057350540361
  H   7.83773093439524     -1.57246154132050     -0.21819458724187
  H   5.85842004728487     -2.40978990343817     -1.30365723628933
  H   4.56519606626683     -3.74676173555270      0.41862228260451
  H   2.96064562626529      3.15707365892887      0.34988132295447
