27
Coordinates from ORCA-job 23670optt
  C   0.82992699187358      0.45260927305311      0.45854294088881
  C   2.28800099990911      0.27907366614951      0.16159138465223
  C   3.06477931759395      1.23934408935270     -0.34223507825768
  C   4.50260139703825      1.11871982602228     -0.60320836175996
  N   5.26960703624981      2.09941708791428     -0.86886868024715
  N   5.09775854982731     -0.15555066121061     -0.57852127960845
  C   4.52191865511358     -1.19900711662100     -0.15032368676505
  S   2.89499208862250     -1.31467200673096      0.52506588619188
  C   5.30264450714556     -2.46528958848032     -0.07426311182204
  C   6.54004242835213     -2.40223571478575      0.55826824525858
  C   7.31743537580495     -3.53533086550214      0.71896626325384
  C   6.88123377078383     -4.75623626068107      0.22723874138094
  N   7.63174441835489     -5.94413732066166      0.30785208961978
  C   5.66956554766786     -4.82151000176401     -0.46917339212413
  O   5.27233796722402     -5.99253944358956     -1.02278309398042
  C   4.87926234246815     -3.68731813379554     -0.60306122955766
  Cl  3.44009915337447     -3.83432346231552     -1.54256689748887
  H   0.52407593796237      1.47691680444078      0.25245905989214
  H   0.61781543060174      0.22660625499143      1.50515751362486
  H   0.23189049971220     -0.22526832000777     -0.15283784660751
  H   2.61615527833664      2.20433707322898     -0.55323928987962
  H   4.74158258112774      2.97046199995302     -0.85965625335574
  H   6.87614340160626     -1.44520163213075      0.93260676394585
  H   8.26522200127281     -3.47676142500670      1.23990335705711
  H   7.12799035211863     -6.69980381899858      0.75771336046178
  H   8.52481300681065     -5.81525600851071      0.76130822043940
  H   6.06136096304690     -6.53104429431338     -1.17593562521290
