28
Coordinates from ORCA-job 23673optt
  C   1.07650288684053      0.08243745158536     -0.22048444087785
  C   2.55671003153686      0.08095248116411      0.05159837402078
  C   3.07151075862609      1.38111914891295      0.68367878739471
  C   4.54015126276611      1.24975164958365      0.97994339644253
  C   5.22107198870383      0.13609499400189      0.64561045633992
  C   6.67068836394831      0.09631910370323      0.88403382364717
  N   7.53974011247165     -0.74604910213525      0.54374238981737
  O   7.19321359490199      1.15400942137049      1.61148407632162
  N   6.49997841768668      2.27586601170138      1.94660597700377
  C   5.27003272091171      2.31557221153145      1.63359406216951
  Cl  4.42808414799034      3.75698529047763      2.06741977499490
  C   4.38098924626795     -0.99591882186495      0.02825197471287
  C   5.00567868152261     -2.33724962991367     -0.27667857668846
  N   3.09946179428717     -1.09272958478900      0.79908930718646
  C   3.52846473803926     -0.31270814940073     -1.03330567281070
  N   3.50006573279459     -0.15608794654039     -2.27563652154688
  O   4.60844775395418     -0.72226169394393     -2.89721048883426
  H   0.52250288722261      0.22239754348601      0.70958178227421
  H   0.77886922488374     -0.86357800881178     -0.66890493953303
  H   0.82067601110357      0.89450216283384     -0.90242677251912
  H   2.51831402171227      1.60784332173179      1.60078351100039
  H   2.91051415857429      2.22332366172384      0.00439110124202
  H   7.14243453236361     -1.52097894914375      0.03338513111227
  H   5.46228902841763     -2.77002219106677      0.61469078137414
  H   5.73666153966247     -2.26710148210319     -1.08020781632460
  H   4.20836128129064     -2.99930758441396     -0.60954739281427
  H   3.21261772280953     -0.93330571766570      1.79803990627623
  H   4.46396735870969     -0.53387559201455     -3.82952199138170
