27
Coordinates from ORCA-job 23684optt
  C   1.46079891482675      0.42991665639642      0.27556524333125
  C   2.86862581606021     -0.06644319330776     -0.05248658357808
  N   3.14342899433889     -0.02834945903348     -1.47670699691132
  C   2.32260075264143     -0.76738454206619     -2.40737312602700
  C   2.48424135803807     -2.28256497868135     -2.37446566576709
  O   3.81008012520028     -2.69174856566536     -2.63865909784266
  C   1.98571394423966     -2.94004777175637     -1.08568263404499
  O   0.64474767660263     -2.57062075880349     -0.80045146754840
  C   2.79833150753653     -2.65080717404977      0.16128767142377
  C   3.13091414484745     -1.39348627742213      0.65022889284406
  C   3.74654369146696     -1.42356399942824      1.91534951478311
  Cl  4.11120146869460      0.05576823275986      2.74783095862383
  N   4.08595673371074     -2.50122095172313      2.58531275687617
  N   3.82419794884097     -3.68875577926904      2.07868092149825
  C   3.18704668214550     -3.75524448915024      0.92546147538473
  H   1.30271273865830      1.39885929844414     -0.19757997792847
  H   1.35693446712966      0.54268269454423      1.35517027559261
  H   0.70398937110496     -0.27460361906844     -0.06488635732295
  H   3.56764434812253      0.64661500511091      0.38154634846990
  H   4.13007303162537     -0.10198142311907     -1.68188719075502
  H   2.57357439867606     -0.42990618719576     -3.41449638357115
  H   1.27477723048764     -0.51798494297495     -2.23246369661567
  H   1.88667161847200     -2.69886889838702     -3.19262617767994
  H   4.37967207363280     -2.39405946701981     -1.91983992747747
  H   2.04900126374412     -4.02071286235488     -1.24729606832638
  H   0.06372364223176     -2.96311983789490     -1.46055427424936
  H   2.96979605692409     -4.75936670888415      0.58002156681829
