25
Coordinates from ORCA-job 23683optt
  C   1.13787229970447      0.00259047186262      0.95130075180404
  C   2.46268969296557      0.06439935633660      0.25391250979984
  N   3.09491567129760      1.23521851851448      0.22860098463165
  C   4.26924382919529      1.34362043536374     -0.38035336573658
  C   4.89690628995327      0.26816930598764     -1.02075635684208
  C   6.24743650785607      0.52917052929266     -1.67560823050077
  N   6.27690653353920      1.88357964343847     -2.23598033149476
  C   6.30292231596072      2.71840386715639     -1.02551090478914
  C   4.91382713538031      2.71562105985422     -0.35718442366555
  C   7.28209352135792      1.93832497098297     -0.17388235605042
  C   7.26056867417421      0.66822284600239     -0.55071635998343
  C   4.25390361836403     -0.95932357982432     -0.97965360019383
  Cl  4.98719717891318     -2.34439486841055     -1.70056903830507
  C   3.01921255156929     -1.06568751670991     -0.34748417891250
  Cl  2.17081367199329     -2.56383934939103     -0.29310206406780
  H   0.90428245811949      0.98539687193909      1.35051833572175
  H   1.16076849599262     -0.72721591783773      1.76212480398042
  H   0.35112168740546     -0.31062936315119      0.26306890058982
  H   6.48655823913949     -0.22388019037521     -2.42227024172522
  H   5.44734015351461      2.06426008833269     -2.79317293407797
  H   6.62479254508177      3.73437229100644     -1.25137969031531
  H   4.24526786437828      3.40821642411388     -0.87623866812003
  H   4.96483248685876      3.05320785117347      0.68063292909295
  H   7.82933074218193      2.36557742101357      0.65404053922729
  H   7.77319583510312     -0.16838116667136     -0.09933701006730
