25
Coordinates from ORCA-job 23697optt
  C   1.01118303127975     -0.03419022515704     -0.07119653443921
  N   2.45409254013096     -0.15952530028220     -0.06694813152937
  C   3.16484937964278     -1.29332616740977     -0.05325447935542
  C   4.50348754411371     -0.90778793029912     -0.05899889862265
  C   5.77303865478286     -1.53081065703596     -0.05046329899527
  N   6.87003289310605     -0.83804411269370     -0.05864698037494
  C   6.83701403541996      0.53344838612756     -0.07488851795326
  C   5.65491972049765      1.24810627395961     -0.08195068830976
  S   5.53215012878131      2.97474325638466     -0.09569177025230
  C   7.19125903687187      3.53447523876618     -0.07093355791555
  N   7.47580885014134      4.77533179698538     -0.03526082985624
  C   8.30650245296966      2.56350536545443     -0.09793050871826
  N   9.52634099160088      3.15109196552368     -0.14452825517840
  C   8.11616632327464      1.21616675475866     -0.08756763921205
  Cl  9.53652507311222      0.22974746046548     -0.09406009760459
  C   4.44943483691613      0.50618757013879     -0.07577301549716
  N   3.19216104885244      0.95480821105912     -0.08081318388334
  H   0.57151698896963     -1.02674829975390     -0.02378691190473
  H   0.69664424542531      0.47140276576326     -0.98201048577110
  H   0.70257201734580      0.55286359874952      0.79122637237148
  H   2.68575034781931     -2.25763309068519     -0.03999551600694
  H   5.87115464828277     -2.61198758139368     -0.03605030998257
  H   6.65493286006496      5.37559703745013     -0.01308588022567
  H   9.54690982051462      4.14906861988962     -0.00742755840660
  H   10.34955253008333      2.59750906323446      0.00903667762391
