31
Coordinates from ORCA-job 23690optt
  C   3.18017056411067     -1.12671280460460     -0.21032099431155
  C   2.70057663864601      0.31769314376743     -0.11526747536208
  N   2.84561780812643      0.92599218216519      1.21210655207963
  C   1.88544057698567      0.46619014044676      2.20016322163319
  C   4.15414605534176      1.08785047483269      1.65801528011432
  C   4.98783210891585      2.02212196664971      1.18880515838107
  Cl  4.48684393991221      3.17705892963300      0.01439367826178
  N   6.36413398219932      2.00584554844396      1.49290301073213
  C   6.96150379248412      3.12376539599129      2.10663704986393
  O   6.30503616156896      4.10073016841521      2.34073446097740
  C   8.43292356758433      2.99853848327173      2.43957734651008
  C   8.92576804538126      4.20234526916181      3.22449164744362
  C   7.00374640133948      0.73845613993141      1.39460276084989
  N   7.94128485396344      0.42877709089245      0.62429546383867
  C   6.47061523026406     -0.30308120864837      2.37119661767078
  O   7.14107831986599     -1.17010127616054      2.83548586448140
  S   4.77003737331569     -0.09772658451212      2.85961441177737
  H   2.97727694818193     -1.52082439416637     -1.20670053899722
  H   2.67780306895366     -1.76856091622517      0.51455151678553
  H   4.25535385396237     -1.19655787100769     -0.03686938790499
  H   1.64164266226901      0.38476248926269     -0.37094675668947
  H   3.23936919352942      0.93926631199309     -0.83049503163626
  H   0.88217326499043      0.62223199918448      1.80480548398699
  H   1.98698981662691      1.05586123419987      3.11074796291482
  H   1.99615530990332     -0.59485675811897      2.45594253112030
  H   8.99170867243482      2.88829963046837      1.50688108313174
  H   8.59326685838218      2.06850249897394      2.99207707039393
  H   8.78111490906802      5.11850361192571      2.65517379476776
  H   9.98501640735913      4.09232581437282      3.45186006179561
  H   8.37578936682378      4.30553162495491      4.15838433077647
  H   8.19058424750964      1.20977166450528      0.01515382461315
