30
Coordinates from ORCA-job 23698optt
  C   2.43449194576535     -0.18744644631640      2.07439660811871
  C   1.98908717098053      0.86974759665010      1.07952455680703
  C   3.09943989295164      1.15062114311137      0.05538286881332
  N   2.77973134731005      2.23546593745026     -0.86142118635666
  N   2.33511085775998      1.84878691352323     -2.07258949064257
  C   2.03382597304777      2.74311503639739     -2.94877438030751
  N   1.66907924682928      2.32956568972223     -4.22201206362663
  C   2.13164311440867      4.16529713208306     -2.67453352684342
  C   1.76989924455516      5.13566410005754     -3.76657867827549
  C   0.25785102584781      5.24412763272895     -3.80209067566236
  O   -0.43201630247998      4.56760181288446     -4.51403763734664
  C   2.51339404771504      4.52149225264125     -1.43349894996579
  Cl  2.62021072409685      6.17258420345130     -0.96139590722975
  C   2.87179905353033      3.53437055455912     -0.40596358990249
  N   3.24524629775258      3.75623027397781      0.79812027510315
  C   0.70632594800772      0.49144103063608      0.38314686694991
  O   0.07608121065166     -0.50294688207850      0.62019795217952
  H   3.32128000463749      0.14847800445210      2.61185241288680
  H   2.66772607719718     -1.12282544709820      1.56299661234454
  H   1.64497290214659     -0.39806489126985      2.79350524673476
  H   1.79784278673305      1.82080760799051      1.59029651959660
  H   3.29187508731913      0.27300561247921     -0.55913464464178
  H   4.00256042649089      1.42878535774874      0.59748466724386
  H   1.55458631658646      1.32715262714350     -4.27359520376825
  H   0.88571522166277      2.82826494333893     -4.62788994225666
  H   2.12133643920884      4.75445743993419     -4.72501264701631
  H   2.20616831788883      6.11211938700087     -3.56663974110891
  H   -0.19158490277763      5.95809729250687     -3.08917001617934
  H   3.29370954721717      4.75007115235084      0.98997537011494
  H   0.34961097695874      1.20493293194301     -0.38454167576257
