30
Coordinates from ORCA-job 23692optt
  C   0.86427842780090      0.26259615189119      1.36085385872264
  C   2.29640589505136      0.43731528281799      0.90875928934105
  O   3.03380332228346     -0.67912303537813      1.36380447808454
  C   4.39913676899055     -0.68075882069837      1.03288647799553
  C   4.85610121181673     -2.12506320616183      1.15324701965431
  C   6.33367633442594     -2.33589943784478      0.90640863814852
  O   7.16230557172367     -1.74982469768702      1.93073948318014
  C   7.62806935881549     -0.50302682437639      1.66904221245459
  N   8.89193867175177     -0.36075301087229      1.66521776529170
  C   9.49250147092513      0.86837239575978      1.44825662463912
  N   10.66091212348472      1.18793913602998      1.79234666209218
  S   8.62995002961395      2.09168432539117      0.46743674467216
  C   6.99641181385063      1.65472205910999      0.83511520115382
  Cl  5.86490496195227      2.85660000491536      0.33748739839166
  C   6.60801678067124      0.52090773044344      1.44321831376377
  C   5.19782735633897      0.26812721330721      1.94651415623808
  O   5.20439237019324     -0.15135793639218      3.28981461012803
  H   0.25558774397938      1.10409770925669      1.02990145398043
  H   0.82020052950421      0.20560967683855      2.44808613373887
  H   0.44659864451883     -0.65630929494479      0.95040923877768
  H   2.70776526011377      1.36850510233784      1.31410343452224
  H   2.36052995463434      0.49584681930559     -0.18536525058495
  H   4.53640832208503     -0.33101326601486     -0.00245818803994
  H   4.29298114173138     -2.72467519542909      0.43586489526883
  H   4.58912206795944     -2.49196807930460      2.14727930922008
  H   6.64137474130391     -1.93893713206423     -0.06496356899028
  H   6.57576001822668     -3.39653948922554      0.92943405481053
  H   11.11049371143742      0.39388217257043      2.24908211712999
  H   4.68228811042724      1.22592974067695      1.95665777595525
  H   5.70825728438822     -0.96988609425806      3.36781966025940
