29
Coordinates from ORCA-job 23705optt
  C   2.57440725841953      2.47326383951429     -1.26548463860363
  C   3.24285028259514      1.28703644423666     -0.64913529951647
  C   2.76491389350923      0.46398802793383      0.32291205354729
  C   3.64382117192864     -0.60554161203214      0.66208469208362
  C   3.31328005627683     -1.64184292023471      1.69066457621435
  C   4.80001781959573     -0.55756888414447     -0.06526746337048
  S   4.80032381436134      0.77751564639774     -1.16003678572404
  C   5.90076368776256     -1.53096452600328     -0.02922398757523
  C   7.22118860491087     -1.21445606634567      0.27808083322759
  Cl  7.67165669727154      0.40793088099759      0.66250238823690
  C   8.21182462127297     -2.19756813071000      0.31507187392238
  C   9.65100681774437     -1.88940754971097      0.65712895066732
  O   10.44440749351805     -3.04053551681915      0.65543183931717
  N   7.92247542986917     -3.46218591306301      0.05942271379817
  C   6.67772352433419     -3.80273502647692     -0.24379111127254
  C   5.64476010007474     -2.88291167145536     -0.30635355128677
  O   4.38179727101977     -3.24355821631205     -0.63898216196107
  H   1.64685287879119      2.68521635372642     -0.73546068400779
  H   2.33290580852634      2.29020341737049     -2.31373721248487
  H   3.20562359460377      3.36126057352742     -1.21913625780967
  H   1.80038415644763      0.61060139289848      0.79205913053231
  H   2.89987338882240     -1.17479032063155      2.58523732487628
  H   4.19268410153602     -2.21617201288475      1.97943724393831
  H   2.57117929232969     -2.34157626610350      1.30190281676113
  H   9.68679438262370     -1.40892772305719      1.64092101548282
  H   10.03818656737385     -1.16108303317225     -0.06449463610427
  H   9.86721354470725     -3.77911937278236      0.41093925781723
  H   6.48742735171979     -4.85188545081613     -0.45313861528475
  H   4.35365638805357     -4.18518636384745     -0.83955430542128
