27
Coordinates from ORCA-job 23718optt
  C   0.99337069997531     -0.10322447968497     -0.19931694076424
  C   2.51720178338616     -0.10466153791603     -0.15172346579680
  C   3.07761917262248     -1.35922729857101     -0.81377598358760
  C   3.04729639841917      1.18630150565164     -0.79986434318603
  O   2.56594772725587      2.32188272337655     -0.13243470617593
  C   4.56070897447745      1.22378609683250     -0.81922098075602
  N   5.19408616567724      1.72034539953490      0.17894285385935
  C   6.56197555703857      1.70619991851762      0.13263187409748
  C   7.52536075934406      2.13641225011828      0.99886695177544
  N   8.78486939489648      1.89083549603538      0.48700769121113
  C   8.66787153648888      1.31484128239735     -0.68556730382412
  C   7.29095999990894      1.14734397825347     -1.01144798031672
  C   6.55056040715348      0.65666321576349     -2.02728365834169
  Cl  7.17696706963376     -0.02046155175376     -3.46751249796386
  N   5.19646419544889      0.69680178817553     -1.92863510169043
  H   0.59259097179329     -0.96124386704881      0.34145322133056
  H   0.64760867708008     -0.17004551487085     -1.23471783751097
  H   0.58805277765928      0.80696315592593      0.23849407010335
  H   2.84672977848609     -0.07371289917199      0.89194930306893
  H   2.84769630200773     -1.36903503746599     -1.88477163943950
  H   2.61855079948959     -2.24849475575317     -0.38158490486219
  H   4.15723364309274     -1.45147712110380     -0.68921938761397
  H   2.67732235618663      1.23396144580074     -1.83272785068874
  H   3.22745614786363      2.55965121046333      0.53331680570354
  H   7.39723844541281      2.60541481369838      1.96093907797014
  H   9.52279697529014      1.02839506595957     -1.27977560835030
  H   4.63946328391120      0.32478471683574     -2.68402165825078
