23
Coordinates from ORCA-job 2371optt
  Br  2.60555404020905      1.34611036388760      2.34259394642354
  C   3.79183999043912      0.89234868764226      0.96666002248077
  C   4.33363491322062      1.79481365380313      0.12483923860852
  C   4.10694590268428      3.27972669968398      0.12189486890148
  C   5.43511063766513      3.92296435811565     -0.31824920026910
  C   5.38012009822535      5.37771562716161     -0.28108845198910
  C   5.29834660523089      6.57178348038356     -0.26397766624561
  C   5.49862132143644      3.40072377370810     -1.76978703296804
  C   4.09714679712225      3.65015341257795     -2.31719891863159
  C   3.19508198898929      3.57547672140927     -1.08316418100314
  O   2.01012340033587      3.70376179591257     -1.05668852402525
  O   5.80473580779102      1.99785479629194     -1.75817159742860
  C   5.21264703773993      1.20853180975328     -0.86282894279160
  N   5.49215468504633     -0.04695048493173     -0.95491349725601
  C   4.94496851392834     -0.93297352233740     -0.08090836997226
  O   5.10954186259526     -2.10335312697726     -0.02858607336908
  O   4.04718184006778     -0.39369352100452      0.91047533805877
  H   3.69267303518248      3.64577266318201      1.05619888065098
  H   6.28355250172524      3.55721662879373      0.26204120162028
  H   5.23030826395731      7.63372253928399     -0.23682578292013
  H   6.29282344436842      3.85445170557999     -2.35354298315723
  H   3.80076809301051      2.92582498153487     -3.07469438969435
  H   4.01511921902902      4.65001695654537     -2.74507788502325
