27
Coordinates from ORCA-job 23712optt
  C   0.87385448220274     -0.21676847528496      0.02135048572006
  C   2.40172472345924     -0.11163246072291      0.03501644190759
  C   3.02162846800626     -1.52096035086743      0.20967831449941
  C   2.68604062722728     -2.39770309576664     -0.90963089645193
  C   2.40175000215867     -3.09947004073755     -1.83639482732250
  C   2.94004735198706      0.39090844577058     -1.31995171843614
  O   4.09959186138415      0.61232144400323     -1.49830306395194
  C   2.84405649749563      0.84470218586591      1.13154351613672
  C   2.63440396330743      2.18799176770384      1.08038285185301
  Cl  1.92296767961520      2.95679764936022     -0.28718828255767
  C   3.02416699635461      2.99518144594719      2.20373313043094
  C   3.60081524888171      2.44967717434674      3.29918295164185
  C   3.84625003403082      1.02382610555266      3.37879156949234
  N   4.37678517190965      0.35077528202999      4.32334945712263
  N   3.42713139869487      0.32530402330134      2.24531463872463
  C   2.79174471766966      4.41386857167752      2.17531084802324
  N   2.61179736076420      5.54586886696016      2.17610133748673
  H   0.56093491021332     -0.88745802327807     -0.77960715722672
  H   0.41017476608427      0.75520454352300     -0.13318398614818
  H   0.51763810680572     -0.62377873802702      0.96838991866415
  H   2.64592304916259     -1.98159324107750      1.12793667774257
  H   4.10911757834788     -1.43399367706143      0.27555676128825
  H   2.15958892188089     -3.72679855921136     -2.66126484408169
  H   2.19299260939554      0.48138826204374     -2.12844038427602
  H   3.88847835380333      3.06731002002950      4.13802028610443
  H   4.64840358544761      0.95040006204541      5.09521733968059
  H   3.61699153370959     -0.66436918812616      2.30208863393363
