29
Coordinates from ORCA-job 23717optt
  C   1.25749148540287     -0.64551919025813      0.49877550622887
  C   2.51237453177751      0.12798340147019      0.08507571925178
  C   2.83999724638678      1.17248467461650      1.11422045726006
  N   2.14373942140496      2.27083919803728      1.08850941933504
  C   2.32230376163552      3.24004398659768      2.04430922194886
  O   1.61428694317416      4.20534804293853      2.17370879995354
  N   3.45460980721310      3.08211321490707      2.92395017716923
  C   3.77029486161531      4.15069270478401      3.83867974681168
  C   5.06728787911353      4.87948737353562      3.74524869650454
  C   6.10041223988221      4.55381525969359      2.69961781572934
  C   3.79153065441880      5.55402194880159      3.30502079581918
  C   3.17918663558921      6.57721876678783      4.18517763163020
  O   3.27870096167638      6.55169901373245      5.38399983529534
  C   4.10532843278601      1.89537969581491      2.97248073898128
  Cl  5.26664779046783      1.65921564190071      4.21684918920112
  C   3.83359567097843      0.90075021260417      2.09347628752557
  H   1.01033244064964     -1.39945581494296     -0.24773794686901
  H   0.41594285670855      0.03914324418994      0.59743677163456
  H   1.40511421536350     -1.14836881099865      1.45577092017686
  H   2.33528236010333      0.63322060075230     -0.86426884368032
  H   3.35600604699744     -0.55284614499828     -0.03532662148466
  H   3.33205964157802      4.04561475176448      4.82427547413912
  H   5.43752044166054      5.21582983499100      4.70687564224580
  H   5.63581151626117      4.15620011635767      1.79576078963263
  H   6.81486179700580      3.81822812596171      3.06803163679307
  H   6.65098574527058      5.45304289824251      2.42326650784691
  H   3.63501373490678      5.66996576575314      2.24227649898555
  H   2.61494171377297      7.37946361826894      3.68066802886292
  H   4.35433916619901     -0.04161213130582      2.14287110307090
