28
Coordinates from ORCA-job 23714optt
  C   0.95534454293140      0.13445179480218      0.08344994918618
  C   2.48777256897077      0.11483755684981     -0.01582412738922
  N   3.01437045575298      1.47807455605413     -0.09368219688160
  C   3.11975793651505     -0.50197323750906      1.24491733169674
  N   2.78136807028009      0.29672694924672      2.40485225448504
  C   3.20920437579784     -0.09711558811161      3.52905445230909
  N   3.94133079749433     -1.21727416845324      3.81172252997294
  C   2.86983428919682      0.69544792280104      4.70587464027914
  N   2.62886227422606      1.29836363939080      5.64915452344336
  C   2.94887991726799     -0.67596466966153     -1.24408733826588
  C   3.74282767561008     -0.05949058696612     -2.21119375221659
  C   4.14753933286146     -0.74431265734274     -3.34483925927719
  N   3.82934593250854     -2.01095593141405     -3.58721376054563
  C   3.09293373783015     -2.62505264786697     -2.67548325166284
  C   2.63872898891383     -2.01190278494653     -1.51170141805361
  Cl  1.69992455317837     -3.03381619534387     -0.46031044701911
  H   0.67422678973545      0.73606019798733      0.94777728499798
  H   0.51933378559039     -0.85494086110358      0.19417993977493
  H   0.53961422298943      0.59468003821307     -0.81475926273029
  H   2.85357304927789      1.91983928847129      0.80660493608840
  H   2.49163417731629      2.01433905545097     -0.77922330001844
  H   4.20857497378006     -0.51976690779207      1.09884652810798
  H   2.77289120953003     -1.53139136472377      1.37324437963867
  H   4.37175230679129     -1.72269722395003      3.05609495684749
  H   4.35133267826501     -1.31877800514923      4.72402810441150
  H   4.05804364231470      0.96169340678320     -2.06027499672071
  H   4.75832391216685     -0.24862151982151     -4.09077464934755
  H   2.83667380290680     -3.66246005589464     -2.85843405111079
