27
Coordinates from ORCA-job 23725optt
  C   0.84661262248132      1.38393641686983      1.13554446348153
  C   2.29833585366180      1.75466912467343      1.32097369115966
  O   3.04877665220570      0.54906888629309      1.38322642446646
  C   4.37416737705782      0.65262430124524      1.59773695584688
  C   5.07269486701489      1.80450314831745      1.71904260272964
  C   6.49113722091416      1.75131622897474      1.95603441036144
  N   7.05621182178694      2.93297332899051      2.06667664709535
  O   8.37749074980981      2.98090375330475      2.28858441849245
  C   9.11821450392660      1.88832984661863      2.38852714725260
  C   10.46564726286498      1.81875867479359      2.60272104671739
  C   10.75834030182949      0.42709894542571      2.62862236360134
  C   9.62834904313998     -0.35307361305882      2.43847990191548
  C   8.54096485290573      0.53198294708817      2.27579778020032
  C   7.18323042181444      0.48027643304674      2.05470427033919
  C   6.36579731033118     -0.69664603807344      1.91108951186281
  Cl  7.09361306662478     -2.25668686502660      2.01847046126918
  C   5.03695216537424     -0.61788942635877      1.69776386138533
  H   0.23624591779348      2.28567952656233      1.09205784090306
  H   0.50264873825235      0.77035054656103      1.96745087259911
  H   0.71064473540379      0.82507690178736      0.21062936977025
  H   2.44970551484696      2.31655224846065      2.24790808467765
  H   2.66331225663118      2.36368149730019      0.48790468667086
  H   4.62488428874808      2.78351577096992      1.64854385783843
  H   11.15181895714201      2.63897087068315      2.72279980044719
  H   11.75103955059145      0.02547397766436      2.77825732748996
  H   9.59966074750660     -1.42596419608451      2.41708927684611
  H   4.43750319934018     -1.51248323702877      1.59936292458031
