30
Coordinates from ORCA-job 23736optt
  C   2.35092338395434      0.17354979575322     -1.45154071358114
  C   2.41957016013002     -0.03055033121538      0.05864756262400
  C   3.02658249200944      1.12276323359310      0.89586766980022
  C   2.51773873872519      2.48706797896848      0.38341478273078
  C   1.00395346033136      2.66332974315704      0.45892569633814
  N   2.67600112799966      0.99368215141518      2.31324796958490
  C   3.02925972110581     -0.26746145698946      2.94599653983139
  C   4.56102619887439      1.13281138105563      0.81256489472313
  C   5.38264207951599      1.92648186698026      1.55396793658843
  Cl  4.90739078149019      3.08519230535394      2.70969811417896
  C   6.82871097008455      1.81520572390957      1.39522302840504
  O   7.68751049305644      2.42701553842690      1.98154259095312
  N   7.15358023802405      0.86676924594128      0.43576588915633
  N   6.33182417023231      0.11275797025807     -0.27885324759538
  N   5.09375820818312      0.23147997764005     -0.10103415141730
  H   1.97671116175631     -0.73225821641832     -1.92990490012520
  H   3.33318663663228      0.38626043263077     -1.86983317903501
  H   1.67834071770001      0.98828120538871     -1.72117228978784
  H   2.96912367377391     -0.94753475394419      0.26856770423002
  H   1.40750121190239     -0.18185386687121      0.44608390024800
  H   2.84929792823609      2.60099410196226     -0.65023762600984
  H   2.99468133981147      3.27804835015550      0.95926351548665
  H   0.46836708908791      1.86334669944075     -0.05296693482536
  H   0.71732621341582      3.60573198223255     -0.00797343464356
  H   0.65213107722491      2.70381980202887      1.49072259396970
  H   1.68666924383392      1.17169130143701      2.42443941701408
  H   4.11013365736251     -0.41279405021358      2.89138336072301
  H   2.54699052919365     -1.14911803771853      2.50877180929253
  H   2.76130202374651     -0.21725066814400      4.00065149172090
  H   8.13676527260538      0.71754059378551      0.24877000942126
