30
Coordinates from ORCA-job 23743optt
  C   0.64327242082648      0.61856175150886      1.59127626185843
  C   2.16640172281248      0.58541904381058      1.56622445635585
  C   2.74337387548421     -0.75331365594027      1.08602917357573
  C   2.48954996913540     -0.96775998969144     -0.40210980073059
  N   4.17818536412883     -0.75350794110778      1.28857264832438
  C   4.79066541707222     -1.12558909066852      2.32848006104656
  N   4.25606052173923     -1.61665332675091      3.54946006061872
  C   2.87313734629429     -1.77159633283726      3.92646240386274
  C   2.40937520417253     -3.19574602918423      4.07820597678151
  C   2.95967232013309     -2.44858962056641      5.25075284063581
  O   4.32440309428038     -2.61876526981638      5.55036378778184
  C   5.06171302546812     -2.13369736743874      4.53491293870807
  N   6.33379320064582     -2.18216398103460      4.54761833707704
  C   6.93216461774130     -1.60988679058474      3.44752935301612
  C   6.25737106632520     -1.09420449191128      2.40358766622049
  Cl  7.09671735880320     -0.41915402529380      1.06845141480076
  H   0.27828369176256      1.57466355874665      1.96635798713917
  H   0.24147396362977     -0.16780237761232      2.23633796614882
  H   0.22321104659105      0.47204643797989      0.59618923764812
  H   2.55949503102600      0.80392653690583      2.56320145921301
  H   2.55754636085252      1.37119982369705      0.91536521321733
  H   2.24569406134701     -1.56843036066356      1.62484918641637
  H   2.96626469481374     -0.16846446697866     -0.97102356699336
  H   1.42272177269857     -0.98141333410855     -0.62729663663281
  H   2.92095572889798     -1.91494654890570     -0.72458295079994
  H   2.20122530974896     -0.95721571712993      3.71104894777137
  H   3.02288650951931     -3.96861991588765      3.63494518338359
  H   1.34279711846496     -3.36987850903733      4.07419663742473
  H   2.36253607068731     -2.19313406992061      6.11137551829826
  H   8.01405211489742     -1.59628393957819      3.45221823783184
