26
Coordinates from ORCA-job 23745optt
  Cl  1.34192037041075     -0.72984337699721      0.20597135856787
  C   3.04484224238149     -0.41562340299860      0.07737539664474
  C   3.42289207180147      0.88711018012509      0.15034600118004
  S   5.03809961507591      1.39488914546215     -0.06001946713580
  O   5.29968583690655      1.90081112267986     -1.37022742353046
  O   5.53412044091711      2.14289992554569      1.05157857612787
  N   5.76698949332975     -0.14562148291641      0.02983617242086
  C   7.13724869452070     -0.39297717520466      0.06287549894010
  C   7.28345159074349     -1.72845036561740      0.01155069278483
  N   6.02587270594658     -2.30215835898580     -0.06381024843118
  C   5.71639723964700     -3.72785398703754     -0.02587951147157
  C   5.71154019834957     -4.27828141510884      1.37342586962200
  C   4.51349131601962     -4.03214189442556      2.24017752599532
  C   4.77455981471021     -5.40311294572465      1.69392483855355
  C   5.08901952138618     -1.32671372568083     -0.03983432897274
  N   3.79044406894982     -1.51804815033271     -0.05017077790784
  H   2.72638257859415      1.69805387115871      0.29335820818210
  H   7.85458724162302      0.40559763092368      0.11742614001898
  H   8.17454421643881     -2.33149948609716      0.01697900482855
  H   6.44992450973659     -4.23632449275963     -0.65347699767528
  H   4.73309327124781     -3.84403548241469     -0.48182601077237
  H   6.67718125182123     -4.29238638757713      1.86460227446549
  H   3.70234784217296     -3.46329417192851      1.80666757476320
  H   4.68200919544174     -3.86590213207950      3.29406493579998
  H   4.12922279570759     -5.75612621523513      0.90084896663407
  H   5.11813187611978     -6.16996722677323      2.37223573036769
