28
Coordinates from ORCA-job 23751optt
  C   1.11170566202707     -0.20720042070590      0.13837566443372
  C   2.61199033428852     -0.00053212261893      0.24811434216916
  C   2.95665874878763      1.46470321250056      0.45833808188653
  C   3.20588960357494     -0.86390552289761      1.37590389520390
  N   3.15294446965922     -2.28104870171088      1.13318480610111
  C   2.11794417920746     -3.08716843032753      1.52096772026771
  N   1.93357123241303     -4.31978999455296      1.28968528792141
  O   3.08137155184409     -0.44038240272341     -1.06727708252234
  C   4.34034912938154     -0.51557733733723     -1.41432282272290
  N   5.31234393462694     -0.26808295256891     -0.59738462939688
  C   6.61942108552790     -0.35126250527377     -1.00523811023833
  O   7.57378960327477     -0.13049181000416     -0.33234935803087
  O   6.85913837288054     -0.73319355633850     -2.33577508920299
  C   5.85277127021127     -0.99462930777817     -3.16521856107621
  C   4.57098382255297     -0.91111935454982     -2.78999630179262
  Cl  3.28458633374989     -1.24712696108268     -3.86740159395461
  H   0.62772163641063      0.10834932636773      1.06310561334241
  H   0.88037793800595     -1.25633626266389     -0.04573347148365
  H   0.71253226211746      0.38390483357558     -0.68536921325995
  H   2.49383568912258      1.80651481884501      1.38534649032187
  H   2.55916281287469      2.06489430891598     -0.36023177597570
  H   4.03165873590006      1.61499039779090      0.53179380198462
  H   2.62644911022181     -0.63891273204987      2.27475503626928
  H   4.23453177030997     -0.56747546266800      1.56347927096337
  H   3.90138227045485     -2.69461411135572      0.59928023896833
  H   1.37662780331308     -2.55397582372592      2.11943263919313
  H   2.67859003053288     -4.71827727012103      0.71742478897727
  H   6.17267060672821     -1.27725385494089     -4.15888966834678
