29
Coordinates from ORCA-job 2375optt
  Br  1.22858218236311     -0.07043611670044     -0.48797909642835
  C   3.08100194295409     -0.12274492963593     -0.16777724990482
  C   3.67474996880772     -1.29265547569028      0.11235295794356
  C   2.94583813519503     -2.64501288837460      0.42145832320480
  C   2.63977340916820     -3.87399298914652     -0.54653905912241
  C   4.01565371620620     -4.70236209021585     -0.62053292848992
  C   4.86047121931745     -3.47429443540113     -0.18433394439844
  C   4.79028198755461     -2.74891976994911     -1.72693126144521
  C   5.83946377437479     -3.45008254364890     -2.45376320666641
  C   6.73418759743845     -4.02266360893004     -3.00972423645803
  C   5.97142258514225     -2.54314867248058      0.30500992388632
  N   5.08362419213614     -1.26451109440611      0.37843609191180
  C   5.71097329077505     -0.06624035665172      0.30267568198329
  N   5.18288177313033      1.07726886086725      0.06276520706719
  C   3.81290259435587      1.16369663616126     -0.21142981927060
  O   3.27469124192340      2.21068526337692     -0.46433338126725
  N   4.00557584996364     -3.32078659151143      1.08834648298659
  H   2.06396903076494     -2.41221442847643      1.02025113232001
  H   2.23809894466811     -3.61529512609532     -1.52221670115789
  H   1.88748553638139     -4.45853626158986     -0.02081725011880
  H   4.21693500437087     -5.07551250957180     -1.62019896927057
  H   4.02220788337905     -5.51333249729383      0.09777878114084
  H   5.01934460409888     -1.68892003876049     -1.76794569097973
  H   3.84156189711411     -2.88267822955419     -2.23168370946597
  H   7.51802668764417     -4.52770296555741     -3.52240433536355
  H   6.77839966996873     -2.35049551837507     -0.39758800454973
  H   6.37251784281027     -2.75372099914832      1.29451962371212
  H   6.78541461621857     -0.11826341454961      0.46898526766790
  H   4.43096282177449     -2.73412720869039      1.79461937053324
