27
Coordinates from ORCA-job 23753optt
  C   2.29703949747365      0.55569507987312      1.19208473544552
  C   2.54681399462682      0.12887047445706     -0.23305662462155
  N   1.27034912168652      0.04218995823289     -1.04861491812762
  C   1.18610052777454     -1.41432913214276     -0.67071303025776
  C   2.69960673904164     -1.38865763838620     -0.47600073230042
  O   3.22401485565335     -2.23081965550396      0.50057787499496
  C   3.35880585282637     -1.59817421124747     -1.83595872978975
  N   2.67668108413161     -0.75268929788604     -2.83782599001129
  C   1.62403639095989      0.10857603193407     -2.41112783851374
  C   1.03870105743822      0.92347043120664     -3.28702492810082
  Cl  -0.25236832084757      1.96389368162918     -2.91211307439219
  O   1.40747807314054      1.03818247406206     -4.60728128966346
  C   2.23243024582906      0.15186577614279     -5.21888882163974
  N   2.74934135792031      0.30477557394039     -6.33987774942326
  S   2.51523432019197     -1.39654497067343     -4.34400031607638
  O   1.30798151392436     -2.15508364731663     -4.44402149686514
  O   3.76982897288875     -1.96367643322408     -4.69816363275137
  H   1.96242975379658      1.59192878290254      1.21478893869598
  H   3.21784764348478      0.47066183985524      1.77047514755005
  H   1.54222252942639     -0.06532374855696      1.67197070835951
  H   3.30126964638367      0.76346767569850     -0.70524567312865
  H   0.77498962388590     -2.06418964556348     -1.44356375717794
  H   0.63506349955384     -1.52552898317005      0.25899148907681
  H   4.18626064018217     -2.17969656102180      0.50806424517294
  H   3.27172680069188     -2.64990788044997     -2.11531624767999
  H   4.41856887108909     -1.33124705723827     -1.79978355267435
  H   2.49754570684560      1.20029108244663     -6.75937473610030
