26
Coordinates from ORCA-job 23750optt
  C   8.63406337755564      1.67155867674749      3.22284341311900
  C   9.57229221459755      0.72926391142937      2.51956927714988
  N   10.22371044257335     -0.11945801879147      3.19739884494928
  C   11.03898363655074     -1.04622887074827      2.56661251220643
  C   12.35697623621336     -1.10675266991933      2.77603970150996
  C   13.13359932824113     -1.54703043828869      1.63238830897892
  C   14.09375433813682     -0.77802808486641      1.14013034863296
  O   14.46643676803578     -0.83001210656832     -0.19079943316561
  C   13.51852593317324     -0.60572896336035     -1.13240188887178
  C   12.23290802431040     -0.20838628520590     -1.03737637598152
  S   11.35588932922766     -0.28429189158614     -2.61010338408348
  C   10.18244314072991      0.94279341213696     -2.23912254230925
  Cl  9.41909201536904      1.62402674024554     -3.63211249076896
  N   9.82083542636037      1.32930356989722     -1.09564604555321
  C   10.39710669642113      0.71692804795247      0.04162885399108
  N   9.56232412048534      0.95581405317743      1.12487995717163
  N   11.50664845861186      0.09888650541517      0.09305728092439
  H   8.63749006328201      1.44532001629228      4.28399483248257
  H   7.61823661645274      1.55832926192231      2.83667914583639
  H   8.93992719362386      2.70762551202672      3.06680675712639
  H   10.58659859372943     -1.62972078979003      1.76912277675578
  H   12.81001153818492     -0.46979319715693      3.52727340549867
  H   12.67671645668590     -2.27340133648042      0.96674198548858
  H   14.59288952480608      0.01061592896782      1.68916240634253
  H   13.92709019878486     -0.77861029628614     -2.11925137929755
  H   8.83145032785678      1.59297731283760      0.84348373186691
