32
Coordinates from ORCA-job 23764optt
  C   1.00675742528037      0.36331815180014      0.12922872500506
  C   2.52168759509990      0.14549361035540      0.15570359012671
  C   2.97149689743373     -0.34708575268794      1.50209187355480
  N   3.40792448347471      0.58226437576248      2.36291376224415
  C   3.77149856495764      0.16765018307152      3.56559346464368
  C   3.72814754519319     -1.14620225742675      3.98953764496246
  C   4.16791844081102     -1.27322836994371      5.41725404043133
  O   4.88148309632494     -2.47120181413689      5.69359293179153
  C   4.93765191920647      0.05776862382618      5.67107064711450
  C   4.83076577404398      0.49515014212731      7.12470302545158
  C   6.40693672148381     -0.11119992205484      5.28031118166820
  C   4.26427807019145      1.04717755758228      4.68532666119805
  C   3.28317521897377     -2.12612568719951      3.11934416771861
  O   3.21869101067993     -3.42360664977946      3.45324082508907
  C   2.89445914797013     -1.69939229090662      1.84792181480926
  Cl  2.32484561733313     -2.88143331246926      0.72518947746877
  H   0.68875681244231      0.74452935852576     -0.84113099018723
  H   0.71733152827956      1.08483363409774      0.89367592554893
  H   0.47637789980140     -0.57045775405201      0.31870995621214
  H   3.03520759643293      1.08753906961996     -0.03060168438866
  H   2.80774119682479     -0.56346985408524     -0.62144201725808
  H   3.29851252319436     -1.32061008343626      6.08061012027239
  H   5.71355890060175     -2.45153177457557      5.20586124275039
  H   5.26058442485444     -0.26030278551211      7.78562207276009
  H   3.78796582473300      0.64523764598178      7.41042596525170
  H   5.36450805246948      1.43298686801202      7.28932887516227
  H   6.91539024745123     -0.82084869706887      5.93615739664805
  H   6.92275934647426      0.84519591807939      5.37220770506794
  H   6.51158742945642     -0.44333305393369      4.24325723759448
  H   4.94341300156436      1.82465604044336      4.33366468709255
  H   3.41222187846565      1.54559568799892      5.15763093720839
  H   3.62936580849587     -3.53636680801550      4.32499873698684
