27
Coordinates from ORCA-job 23769optt
  C   1.34694611449800     -0.93400706372569      0.45864176073508
  C   2.75767799999173     -0.42660312975709      0.27059086488218
  C   3.17360897558248      0.93908945191716      0.85246499447274
  C   4.57300080201613      0.33615999125086      1.17098305229405
  C   5.26596676577396      0.73248186237101      2.46527579203781
  C   5.46032471146535      0.53462806380509      0.02506860631519
  N   6.14525319161197      0.74995707336263     -0.86882037023178
  C   3.88063901943338     -1.05695356851574      1.12337196620264
  N   4.60773668646013     -2.15289289791016      0.56342117358273
  C   4.32983474810052     -3.33005992596309      0.91255865005626
  N   3.33215457452375     -3.65107078829408      1.87250441899807
  C   3.13605107404180     -4.86209544931154      2.13413176744118
  O   3.79622620673970     -5.91943276618130      1.57593254313254
  C   4.74121721107722     -5.56253655582349      0.66760268452989
  Cl  5.50682666538837     -6.94644520293299      0.02380501730849
  N   5.03990506722217     -4.39961914564087      0.32140431313599
  H   0.63622666358554     -0.33860159538742     -0.11687411586049
  H   1.05825197286096     -0.88998321896653      1.51084935007352
  H   1.26134477941438     -1.97105957421999      0.12883549271525
  H   3.06060733177693     -0.47814133805131     -0.77749119894942
  H   2.64599940108142      1.15043446303440      1.78465262050838
  H   3.14460311403002      1.81163197678136      0.20445753787802
  H   5.57896807162285      1.77635109331444      2.43663797123044
  H   6.14741132015493      0.11330304748522      2.63432860707902
  H   4.57695398380012      0.59826362780728      3.29998802911611
  H   3.49142114203281     -1.26441077111527      2.12534076594574
  H   2.40084240571331     -5.20738765933286      2.85133770537033
