20
Coordinates from ORCA-job 23771optt
  Cl  1.06478178662690     -0.02707764309322      0.10061654381528
  C   2.76531000845092      0.07340836874159      0.13494264133220
  C   3.47563794927935      1.23428830964697      0.15454410213377
  C   2.78338866803651      2.55790803804206      0.15764527427376
  O   1.83147349127024      2.81015888165879      0.83707793925363
  C   3.28588233894649      3.55685107853121     -0.80648612967513
  N   3.57689314048369      4.32688398508760     -1.60246258018736
  C   4.92061364199438      1.18802446717447      0.18765047745066
  N   5.58192315752698      2.30151395686109      0.34544286364213
  C   6.94653215138791      2.24794009011039      0.43575837458370
  N   7.76036768410953      1.25362322296980      0.33781839424935
  S   7.27078544689913     -0.23566007069411     -0.06573412605495
  O   7.54474485082738     -0.45374862662382     -1.45099474777190
  O   7.74141823057223     -1.18082025616944      0.89670702848162
  C   5.51590897443096     -0.11698268046997      0.09343557370495
  C   4.74968330559397     -1.22739983344713      0.08002890231430
  N   3.39611021983207     -1.13053157957362      0.11230060553261
  H   7.40338607160865      3.21181331706912      0.64294525673123
  H   5.16468138139148     -2.22590799507477      0.04058135741298
  H   2.82647750073116     -1.96428503074704      0.08718224877718
