26
Coordinates from ORCA-job 23775optt
  C   3.58202297936457      0.26857882023519      1.11114911893663
  C   2.52982298692510     -0.02786855888484      0.03852382794475
  C   2.88379564884786     -1.25721800962634     -0.75468116156468
  C   2.52179961055073     -2.55471713425645     -0.27529679483351
  Cl  1.66661459176347     -2.69318424583924      1.22773520218569
  C   2.81047660671591     -3.70313211362752     -0.94271856489220
  C   3.51547393316809     -3.62981705096934     -2.16306347778988
  N   3.78888283218478     -4.77707456088794     -2.81983946757012
  C   4.44951452028273     -4.63202419076233     -3.93662820999359
  S   4.99253530271797     -5.82111351478080     -5.04848389208471
  N   5.69171788601793     -4.60193593577603     -6.05526402455698
  N   5.55363229691191     -3.43653808715301     -5.63758496309332
  C   4.85614398128803     -3.36206154988695     -4.43232075430469
  N   4.60257754001868     -2.24471685629705     -3.81360482521883
  C   3.92044711682246     -2.34995479059288     -2.65866927497712
  C   3.59215358619853     -1.16173785915809     -1.92947702537432
  C   4.02224326603765      0.16902119498057     -2.48245968700818
  H   3.31736580645898      1.16165523192135      1.67682543766526
  H   4.56263311168320      0.42559783283030      0.65934670603629
  H   3.66392058649317     -0.56576555366517      1.80809732428004
  H   2.43581046100659      0.82294519210065     -0.63441065648928
  H   1.55745446134080     -0.16476346563545      0.51059509101508
  H   2.51546756642155     -4.67217103632737     -0.56678448378849
  H   4.76438505064369      0.03578158548225     -3.26333417599688
  H   4.43814273224409      0.80171556846477     -1.69938009358983
  H   3.16996553789147      0.69749908811175     -2.91627117493711
