33
Coordinates from ORCA-job 23789optt
  C   3.57953970524731      0.14927879377612     -0.86313966808788
  C   2.43920619990687     -0.02352994284772      0.14326956634285
  C   2.93688142747416     -0.47290596169068      1.48992010234828
  C   3.39801039650619      0.41204816189399      2.45606679916879
  Cl  3.37617927592662      2.12833133502764      2.11818439292186
  N   3.86335544980937      0.09850341623224      3.64601852186660
  C   3.93341055491299     -1.19060014567970      3.96974271035980
  C   3.51567860823124     -2.18755053677828      3.07998992403726
  C   3.01576634970900     -1.83206239631342      1.84195874855131
  C   2.55914608255917     -2.89831911347845      0.88510704683866
  N   4.50483844852955     -1.51458688671877      5.18795792513441
  C   3.80579671093337     -2.47344902339605      6.10777458455649
  C   3.00771762808731     -1.27580513209571      6.66249870801162
  C   4.34168249241484     -0.56743834054810      6.33708069664169
  C   5.31139222749748     -1.19239570392131      7.34477381549890
  C   4.89520376603881     -2.68193000751033      7.16451773285665
  H   3.20013573533435      0.47253388404164     -1.83294833221722
  H   4.12124301182943     -0.78779590191061     -1.00260996657260
  H   4.29030509091277      0.89555956433462     -0.50730904573802
  H   1.71989608960153     -0.74845798975462     -0.23934459922478
  H   1.90498110794885      0.92012475058303      0.24937008709611
  H   3.60674110333403     -3.23036300933975      3.35340864533301
  H   2.81064802141669     -3.88808064468266      1.26139411791295
  H   3.01963984453542     -2.77475224542708     -0.09591485465910
  H   1.47756345876106     -2.85271366770653      0.74259948626142
  H   3.33413370046014     -3.34632980381774      5.66493635219172
  H   2.67489546992033     -1.30961893320904      7.70031639356851
  H   2.20753446211504     -0.96486035807379      5.99384324071119
  H   4.40895268448717      0.49068075113540      6.11277448968884
  H   5.14237810988732     -0.81938978488181      8.35406821562565
  H   6.34766628097066     -1.01230643459339      7.06729230221913
  H   4.49816488233183     -3.13189055391397      8.07364333372663
  H   5.70731562236900     -3.29892813873512      6.78575852702921
