24
Coordinates from ORCA-job 23785optt
  C   0.85173147842007      0.26770083586563     -0.36345798381819
  C   2.34726439617733      0.03600437126944     -0.21391730667927
  C   2.80938533910611     -1.19420733759776     -0.94599672383766
  N   2.11101888527746     -1.75688122017232     -1.85669899408062
  C   2.68302128375958     -2.83228729499250     -2.48080880479745
  Cl  1.71066765202447     -3.56195457660566     -3.69228446009074
  C   3.91011625469280     -3.31136664687638     -2.20273132093353
  C   4.68052999791911     -2.67439475897604     -1.16062966470018
  O   5.76733337560343     -2.95419148066505     -0.76407836472553
  O   4.02362587323018     -1.59224500589602     -0.55454893441153
  C   3.16037044189035      1.23892438377957     -0.69209566721650
  C   3.39851484586393      2.37345455662006      0.27438479901681
  C   4.53471948364838      1.49499305168302     -0.12596323664789
  C   2.94926145921471      1.59649315876479     -2.07536054620574
  N   2.77930554660052      1.87224198011152     -3.17580550536723
  H   0.28872258616442     -0.59517914412340     -0.01171957317996
  H   0.59478046498091      0.43296741035454     -1.40913848337405
  H   0.56010014010671      1.14387264411639      0.21524569580004
  H   2.61084320924847     -0.11181127570009      0.83734278658618
  H   4.34739052038595     -4.15271874632575     -2.71556690020528
  H   2.97379124064918      2.24823769198888      1.26115058514006
  H   3.36023613121200      3.37686513987101     -0.12239386643652
  H   4.90105412318064      0.76220014244966      0.57830810995780
  H   5.27521527064328      1.89728212105646     -0.80123563979302
