28
Coordinates from ORCA-job 23781optt
  C   3.14311484664964     -1.39628211551510     -1.29618647330542
  C   2.70256129238737     -0.13911150558013     -0.55459591780297
  C   3.08265128338019     -0.21467272586843      0.91973586518266
  C   3.29508823695875      1.11003223747063     -1.20449861089675
  N   4.74237475059317      1.10228484750344     -1.14313362606645
  C   5.35347434833190      2.10288263311092     -1.62788054666940
  N   4.76153625708102      3.23453405549097     -2.23471931646490
  C   5.72193560848938      4.12946743509301     -2.61568763453017
  C   5.67947573888194      5.33528238081373     -3.19833430160633
  N   6.90824177049446      5.96287936077476     -3.42752887295510
  C   8.06407395947716      5.35582981478661     -3.07201283481101
  Cl  9.47788563528279      6.28215034244226     -3.44057581072275
  N   8.18325267129239      4.21490497585962     -2.51767773377521
  C   7.01106683526611      3.53608131712753     -2.25181307502049
  C   6.79412323917189      2.33826568323563     -1.67191304969430
  H   2.69945215826960     -2.28744357658175     -0.84958836969861
  H   4.22894531275886     -1.49042212437806     -1.25063502082581
  H   2.84994645697660     -1.36066841913499     -2.34765243875668
  H   1.61387126514729     -0.04914053773472     -0.63256069192769
  H   4.16657871633934     -0.28486105456992      1.01869858668329
  H   2.63400306951543     -1.08985718173889      1.39211762765655
  H   2.75003407418572      0.67296923920760      1.46240266679095
  H   2.89216303292240      1.99735468967542     -0.69116774650178
  H   2.95484696764959      1.15920922320729     -2.25064898807449
  H   3.77083647172987      3.36268544947356     -2.33498261178881
  H   4.79582090739058      5.87214781694368     -3.50400765215903
  H   6.94808249353096      6.86867568573676     -3.86206834316445
  H   7.51956259984557      1.64382205314854     -1.28508507909484
