22
Coordinates from ORCA-job 23788optt
  Cl  0.93357361531722     -0.05635367545769      0.88045147310533
  C   2.56214289592031     -0.01521748993569      0.37125982857896
  N   3.23186285097485      1.05087920593374      0.28117922998974
  C   4.57530713082980      1.01217131242056      0.02119959945968
  C   5.38157085416358     -0.08420285598694      0.15701138250607
  C   6.91470118417845     -0.00548865425107     -0.04158461251912
  C   7.31391290624478      1.12091148809644     -1.09145591183416
  O   6.09449567302411      1.54659584483982     -1.62773028672804
  C   5.52376306322673      2.10999471718798     -0.41204349186291
  C   6.33013488320069      3.41078190472880     -0.50428675859479
  O   6.18147009535144      4.56514392738134     -0.33835333961937
  C   7.75249320712982      2.59132582715023     -0.68034198639475
  O   8.83115259415477      3.06228556724508     -0.59901151895012
  N   4.79511985994452     -1.31167860493717      0.39273432120392
  S   3.25588051775701     -1.59405836466788     -0.12289351069045
  O   3.22433105862235     -1.59709880873356     -1.54426804772655
  O   2.76646815638587     -2.69369876133086      0.63593510942090
  H   7.24587461560751     -0.96899245859701     -0.42726438500234
  H   7.41573745688607      0.14493420278586      0.91863542383080
  H   7.98702562034776      0.74082654840082     -1.85940407321243
  H   6.19506057180522      1.88256114884263      0.43627210821960
  H   5.24192118892699     -2.04462202111544      0.92795944682004
