31
Coordinates from ORCA-job 23790optt
  C   0.97663438749805     -0.13823739313428      0.39077929151154
  C   2.47540198030700      0.04665673655099      0.18934221863781
  C   3.22853501002563     -1.08369649670485      0.86294059767263
  O   4.62332163623812     -1.02772258175570      0.59042194814546
  C   5.20986086400615      0.16885913971175      0.82712675134736
  C   6.59186849122194      0.15058906343949      0.99857477343502
  C   7.28090044506259      1.31827163369614      1.25628833975464
  Cl  8.98870219894954      1.25214193432742      1.46818031100114
  C   6.58694278103536      2.52497211937390      1.35747232728101
  Cl  7.40402753172787      4.00398840183410      1.70148437602621
  C   5.21645139134854      2.53039342442226      1.17636485156981
  C   4.50059535111305      1.36893578475361      0.89351305796766
  C   2.99816480319339      1.44127575100193      0.64378661046026
  C   2.73095902927286      2.43570891753855     -0.49298832896263
  C   2.28116707898203      1.88634786565581      1.93057515566632
  N   2.66935834488558      1.21295957125543      3.07194512873366
  N   1.33382866149200      2.72762914553014      2.01178016176071
  H   0.64796340361841     -1.07391951447320     -0.06322275457144
  H   0.40676337656820      0.67247401656433     -0.06258710438569
  H   0.72700033541921     -0.16413316984003      1.45311561884311
  H   2.70148516734117     -0.02408870761788     -0.87980465990916
  H   2.89345946059817     -2.04538970686050      0.47757989486547
  H   3.06796607689515     -1.06552800540909      1.94492622988168
  H   7.11662746892344     -0.79247429089135      0.93574557686447
  H   4.69080527106840      3.47370171111924      1.26258395060693
  H   3.34858035578962      2.17441101029091     -1.35176052698114
  H   2.96516058151497      3.45919132668965     -0.20187867977037
  H   1.68675915398899      2.40081319708500     -0.80685857193608
  H   3.64228950844073      0.96011523786666      3.14689252602133
  H   2.26925424483754      1.59536856934628      3.91627481714342
  H   1.08116560863626      3.10538530863327      1.10540611131885
