24
Coordinates from ORCA-job 2379optt
  Br  1.48711945687121     -0.21769079957194      1.32619967979180
  C   3.10084056079814     -0.09141807704627      0.36254361705747
  C   3.97272756144255     -1.15003839838356      0.27577812303898
  C   3.98534796312787     -2.54098787454854      0.86446835949643
  C   4.73783880071398     -3.29811949506790     -0.25045799147359
  C   5.92086137145162     -2.29434961609202     -0.33832766804662
  C   6.93914592384178     -2.53119198310624     -1.34158462979533
  C   7.78300255019266     -2.70999439629908     -2.17143682633821
  C   6.42915175191402     -2.37435138326018      1.13742424033105
  C   7.29422295007262     -1.28090594066643      1.54188157830163
  N   7.97801839551145     -0.41010788440907      1.83521202354086
  C   5.08886737620045     -2.45103943039634      1.92905124831856
  O   4.97648946911793     -2.45908299431018      3.11125574018885
  C   5.14782851491600     -0.99134458285925     -0.45552494434548
  C   5.42232236255026      0.20722139112574     -1.07448946573951
  N   4.56036498630179      1.22584961883607     -1.00732447696096
  C   3.44080796761048      1.08318529863397     -0.31512858496361
  H   3.04457550730508     -2.92689193416243      1.24120959403699
  H   4.17518364627023     -3.33555899808776     -1.18062804654469
  H   5.06116042992546     -4.29831701724223      0.03807623106035
  H   8.53422469616970     -2.86790034074820     -2.90900182423895
  H   6.95700571907271     -3.31913606590907      1.29127999625540
  H   6.33310215184393      0.36082791552735     -1.64137938182958
  H   2.76878988677793      1.93334298804359     -0.28709659114186
