29
Coordinates from ORCA-job 23804optt
  C   1.14548934636357      0.22329875827703      0.36361839374366
  C   2.56002517103428     -0.07829259833436     -0.08325001177569
  O   3.51256050713578      0.82822069297234      0.45361715519081
  C   2.95685017559594     -1.53011377795979      0.20582465578918
  O   2.13197399839715     -2.39087904616631      0.33189433329170
  C   4.45391205749377     -1.79424329690700      0.27474576065189
  N   4.74513584619687     -3.19494167946194      0.30358713720329
  C   5.96378649059531     -3.55124346055075      0.29177083593334
  N   7.06026930533793     -2.73818720120190      0.23847444349822
  C   6.25006381775150     -5.01542416058130      0.30430782799446
  C   5.29733793740012     -5.95059789122949      0.32631658836010
  C   5.61150333137758     -7.37543857724140      0.34360458364176
  N   4.78082308957146     -8.33926394726111      0.36820735734766
  C   7.06047233418528     -7.62292328779727      0.33013768520034
  Cl  7.63576135044284     -9.23738327758998      0.34242881510448
  C   7.93664929859005     -6.61510398025199      0.30750188345765
  O   7.57657207436243     -5.30945818765072      0.29649875320869
  H   0.87453526043053      1.24013907146298      0.08294058698051
  H   1.06011847511526      0.11546624677827      1.44780083329446
  H   0.44793601922925     -0.47849786032965     -0.08851650654908
  H   2.63579272498797      0.03643922768908     -1.17043454535423
  H   3.26640787349328      1.02689630465669      1.36287022529687
  H   4.82906192795281     -1.26733247112409      1.16492878773775
  H   4.91779528591907     -1.27666960522970     -0.57908865279316
  H   6.95479457498568     -1.75094681071919      0.39011424252706
  H   7.97612068337458     -3.13238707890696      0.36060295264562
  H   4.26929207149577     -5.61418294888241      0.33153047922559
  H   3.82502342324656     -7.98690692145109      0.37399777240374
  H   9.00793554793696     -6.74604223500776      0.29596762674329
