27
Coordinates from ORCA-job 23827optt
  C   0.84487852494106     -0.24813035968265      0.08087644676246
  C   2.36367677452674     -0.10892869538100      0.15814277077329
  C   2.89475621248976     -0.69710830869954      1.43306258987491
  C   3.82222302548312     -0.15129055956561      2.23934438532074
  Cl  4.55726194569805      1.37868125362776      1.92781333059854
  C   4.20436207864575     -0.91407584149070      3.41777828786767
  N   5.16086018009396     -0.42732674334373      4.22596223646389
  N   3.65041006168737     -2.04901070753539      3.70753277068916
  C   2.66033463679861     -2.55853480610499      2.90737024512175
  N   1.98498614416033     -3.60327221239601      3.09562033437865
  O   2.33536565708759     -1.86693571203488      1.73722472731094
  C   3.04286980436533     -0.77510088579897     -1.07783990119552
  O   2.68609393619939     -2.11432311799738     -1.19079468573035
  C   2.58249902103461     -0.00387108098973     -2.32329583500692
  O   2.02197854162798     -0.55469878660766     -3.22386755350318
  C   4.50508502437081     -0.60258965122772     -1.02527727286775
  C   5.68846155112455     -0.42479535018383     -1.01466893932368
  H   0.38023336256082      0.20072557376766      0.95785288920607
  H   0.56509214264346     -1.29819796012891      0.03943084802285
  H   0.45768882388470      0.25664200297299     -0.80521646625614
  H   2.65192109579541      0.94348434833657      0.14347961373408
  H   5.61707857147274      0.44532152057123      4.03369455603531
  H   5.41530188242704     -0.96819312795653      5.03437134871058
  H   2.29434154426220     -4.03866971379152      3.95916007167270
  H   2.29000591702224     -2.23796730464571     -2.06741661945456
  H   2.81041656676848      1.07566790051764     -2.33265515235378
  H   6.74281697282786     -0.28150167423137     -0.99268502685172
