29
Coordinates from ORCA-job 23831optt
  C   0.90751083797559     -0.00194856939026     -0.06995918830011
  C   2.42964962791591      0.00993996643301      0.16763078401061
  C   3.04943154939286     -1.22711408656990     -0.39683992445271
  C   3.74146581203238     -1.29431456459486     -1.56517895595869
  C   4.03446737011501     -0.09116725918500     -2.39850293496327
  C   3.70267580817131      1.19731457686002     -1.68816582388605
  C   4.10787511513749      2.41526189422303     -2.27263473294117
  N   4.69292369591909      2.43405209922912     -3.51880473989752
  N   3.91458211987792      3.59771620698358     -1.70316622740452
  C   3.31045401646436      3.63291792231083     -0.52287625209830
  C   2.85708287578098      2.49958443155877      0.11992642308298
  Cl  2.09951385262807      2.67815550442148      1.67224606539752
  C   3.03128521720272      1.24360052120914     -0.47333035660489
  C   4.14897663474268     -2.63640917511432     -1.83677284432116
  C   4.95383307979309     -3.03938914993573     -3.03051724271213
  N   3.78233352172533     -3.52495566151378     -0.94745378230615
  S   2.94051820439145     -2.79592118602466      0.26370631059130
  H   0.45535875714255     -0.86198596908540      0.42362424838970
  H   0.70405305692935     -0.07236583698725     -1.13935173457847
  H   0.44880203900065      0.90640991345388      0.31742443473987
  H   2.60875611173497      0.05736200590180      1.24384501789127
  H   3.49558909004415     -0.13713475365116     -3.35347174787590
  H   5.10089216581274     -0.09390137354304     -2.65835148520139
  H   5.17830560679814      1.61436928292831     -3.83900720285345
  H   5.12224419791989      3.31305598039005     -3.76058730650774
  H   3.17836490124566      4.60618789495156     -0.06433622290336
  H   5.91667130712178     -2.52325100396337     -3.03457048457800
  H   4.43601221184493     -2.77615926283352     -3.95502554847230
  H   5.13037121513889     -4.11191034846232     -3.01449854528594
