28
Coordinates from ORCA-job 23832optt
  C   1.75924978180637      0.79261214057491      0.52505726811234
  C   2.98049559364447      0.07662913068836     -0.05725177024025
  C   3.11703262829561     -1.30563411724293      0.51546610424034
  C   3.85140099893913     -1.53022160676729      1.67089612823127
  C   3.89534880907046     -2.82193365029335      2.17795978179226
  Cl  4.82482348769524     -3.12720281152244      3.60910486862030
  N   3.28048407372353     -3.85352532703681      1.64502619912854
  C   2.56629603285359     -3.64112788561884      0.53285285455208
  C   2.46906117184733     -2.39570687434722     -0.06268693252180
  C   1.81514510686148     -4.83282164105651      0.02145404160565
  N   0.56300559745336     -5.13072894423213      0.65133656523375
  C   1.95008183588680     -5.24647952590477     -1.41078107122307
  C   2.67063351843319     -6.02635788760997     -0.34625394913166
  O   4.04695855985549     -5.88421111534158     -0.31442427451742
  C   2.17909182157312     -7.34127841415302      0.02071181635110
  N   1.81776260624646     -8.38412376856959      0.32925126757096
  H   1.66105480017547      1.79378822774765      0.10657557397419
  H   1.84585556484927      0.87943558141245      1.60869925492102
  H   0.84688186462446      0.23720013287309      0.30498540269420
  H   3.88276282769642      0.65073572552431      0.15903952060965
  H   2.88799903719936      0.01121229404809     -1.14253171109968
  H   4.38400580776725     -0.73129283217866      2.16836918933992
  H   1.89219148612243     -2.27775668861387     -0.97221852190953
  H   -0.10741497349962     -4.38548717794529      0.50486450131421
  H   0.68215649806834     -5.26957680404969      1.64914945269852
  H   2.60629486411650     -4.67111356286664     -2.04890782814847
  H   1.08617668788318     -5.70380875527998     -1.86938644951551
  H   4.30216391081126     -5.66322384223818      0.59264271731709
