24
Coordinates from ORCA-job 2383optt
  Br  1.05325313675878     -0.00739388255953     -0.12276351605345
  C   2.92087693731113     -0.09678958726575     -0.08184440075948
  C   3.59297463022606     -1.26113203628788     -0.02956292848715
  C   3.10092688036542     -2.68043474955702      0.00740422557212
  C   3.56371283094734     -3.38957664158535     -1.26689460619863
  C   5.10066462005243     -3.27653277274115     -1.34462375979099
  C   5.61463349283001     -2.55503346897576     -0.07064108583280
  C   7.06144095092762     -2.45045694047166     -0.04742442383271
  C   8.25591008391636     -2.45774873111476     -0.03067695883124
  N   4.95730177702754     -1.23098808962050     -0.03328450433787
  N   5.68382689282757     -0.11600461573122     -0.07377930494130
  N   5.11158379157556      0.99773631250398     -0.10432736357844
  C   3.68416231465088      1.14538604713248     -0.11173552795771
  O   3.20710726312785      2.24709354271031     -0.14383230234601
  C   5.05762981582928     -3.34055128054689      1.13031897123567
  N   5.67631563135197     -3.96748517927544      2.01530254811663
  O   3.69970619848073     -3.32829807278672      1.13276640434503
  H   2.02779148501953     -2.72382766022616      0.15949081874373
  H   3.08213325845858     -2.93774171147412     -2.13303832902552
  H   3.24680813223393     -4.42967431650815     -1.20442694748607
  H   5.42761266845032     -2.69791267353857     -2.20751160937647
  H   5.57760520536181     -4.25375603691205     -1.39076082511362
  H   9.32047677363134     -2.43460609481071     -0.01678675845646
  H   6.68154522863792     -3.86727136035733      1.89563218439274
