25
Coordinates from ORCA-job 23837optt
  C   6.29145957340876      4.70391596505187      1.59902880271660
  C   5.15734120067861      4.26791311575475      2.45241361108420
  N   4.08829047926715      4.96662117925315      2.65088065347426
  C   3.27113617771758      4.19218978878397      3.52700684187987
  C   2.44423800755637      4.28244329054887      4.59519370834353
  N   2.52286209369303      3.09301992634783      5.44242015821107
  C   3.37796705442470      2.30388192816545      4.88491560657250
  C   3.87161420660773      2.91960244242629      3.68443233031569
  C   5.10465818061347      2.93107979779858      3.19318918970852
  C   5.96807110822463      1.87695126846645      3.71285481459264
  Cl  7.55742330056947      1.71161789252389      3.06150566057423
  C   5.52829129678120      1.05098782667085      4.68884206241025
  C   4.18800258487876      1.15089036964878      5.35044591835713
  N   3.74251987534026      0.35996817440540      6.23913473795934
  C   4.50851136330456     -0.76950697734428      6.69963629973231
  C   3.61110025799678     -1.73325062269463      7.45184140863229
  O   3.88948874236350     -2.88538822130353      7.61447624504887
  H   6.08400188310680      5.68292058491885      1.17519181428725
  H   6.45490266929704      3.98042606306242      0.79700234845306
  H   7.21282534036080      4.74122270400038      2.18396629994961
  H   1.87083830479923      5.11711532959530      4.96767077245104
  H   6.19420194534830      0.27081845696503      5.02920800217501
  H   5.26725975480443     -0.42849597770053      7.41763258288043
  H   5.02720641197870     -1.32221911686064      5.91173570417360
  H   2.68178818687803     -1.28772518848456      7.85137442601663
