27
Coordinates from ORCA-job 23838optt
  C   0.92162830670566      0.06076052468809      0.06828866470388
  C   2.42149706699860     -0.01537813130351     -0.11484729685358
  C   2.84744145607540     -0.16152677485669     -1.56758414498481
  C   3.25541587912392      1.05122960986947      0.64963388440777
  C   4.36334179998912      0.14203414953831      1.22879461913872
  N   5.55827331132365      0.15256277024501      0.45264426869892
  C   6.48520525731496     -0.67870592603595      0.72734317352420
  N   6.46605004019394     -1.65654014639557      1.70802047966176
  C   7.55844459862745     -2.44700517099497      1.90198429970110
  Cl  7.37584351695661     -3.62372143963780      3.13520195056793
  N   8.66022474160374     -2.37198818008513      1.26689241174241
  N   8.74993982578111     -1.42483275550988      0.25947342868397
  C   7.75638544708176     -0.66033667743308      0.00972424869278
  S   3.24444697232537     -1.28484171684222      0.90687047672468
  O   2.47395023368650     -1.57481896826376      2.09110809841161
  O   3.87781901722572     -2.36356473167433      0.19439548596871
  H   0.55900520812165      0.99029915596287     -0.37622257314148
  H   0.65323722018595      0.04775906025456      1.12393381852064
  H   0.42184522189135     -0.77025070187041     -0.42971567423177
  H   2.48223528550439      0.70248677463113     -2.12634650422790
  H   2.42374774710181     -1.06600163617681     -2.00342543566805
  H   3.93225878924852     -0.20324309210419     -1.66216934874425
  H   2.66972587319931      1.51709028278652      1.43981177956394
  H   3.67680058086764      1.80940033304943     -0.00738209188106
  H   4.53247308003597      0.25264794216775      2.30523442484841
  H   5.61553640032415     -1.88673633830770      2.20428222699859
  H   7.86022712250571      0.06522178429887     -0.78794467082715
