29
Coordinates from ORCA-job 23849optt
  Cl  1.05684899532068     -1.43833925307573     -1.29011230957312
  C   2.65770964921966     -0.82654117721932     -0.95170691358873
  N   2.71519451317364      0.41017666999468     -0.67584192768653
  C   3.90570860573842      1.06884101084064     -0.39838536057962
  N   4.06168035526666      2.32029088845727     -0.41860247567714
  S   5.31478895070525      0.11650446117059      0.12249730706732
  C   4.91800631444943     -1.45534815902134     -0.46438269168094
  C   3.72538594627860     -1.81186071060374     -0.99204590025877
  C   3.49308838758606     -3.19583043983076     -1.54083519817172
  C   2.90280331464175     -4.22546988549531     -0.53566892512310
  N   3.49568570355042     -5.55120404783915     -0.58065682668819
  C   4.71319601174100     -5.79134639086471      0.17822226543064
  C   5.90346765675896     -4.85838601930243     -0.09782616989656
  O   5.55256932598085     -3.57773252505089      0.37904568890055
  C   6.04185230612699     -2.45804087957378     -0.30930600711623
  C   5.15062790154949     -7.17277557189551     -0.04250323548111
  C   5.54189940592799     -8.28179524099104     -0.26541676281464
  H   3.17580160888795      2.76959267146855     -0.65075585132631
  H   4.44003771494893     -3.58048052261929     -1.91807740300316
  H   2.83465060257892     -3.12267467778513     -2.40706635656741
  H   1.83464476845260     -4.32945833465918     -0.73042660854799
  H   3.00801936116801     -3.84786477332641      0.48106356898691
  H   3.56643802237099     -5.91981125505476     -1.52061562427710
  H   4.46778426614298     -5.66603814337507      1.23876378010446
  H   6.11498022500023     -4.84035962066766     -1.17287596128132
  H   6.79256272735773     -5.22891653423660      0.42158773143611
  H   6.40855321225655     -2.73251838772503     -1.30575314938151
  H   6.87798075489363     -2.00835470228189      0.23488144023682
  H   5.87503339192558     -9.27525844943695     -0.45020012344162
