30
Coordinates from ORCA-job 23841optt
  C   1.03771308362461      0.22828304794090      0.12460739881843
  C   2.55647265802900      0.11786933194345      0.02850321942447
  C   2.96437154136703     -0.10889354813403     -1.42937451624548
  C   3.18987334667827      1.41679493190646      0.53970357223192
  C   4.67183832627304      1.33009345111513      0.79139282851336
  N   5.31787890803657      2.49892280306480      0.89911358625378
  C   6.60208970516020      2.48471533614402      1.14397612393346
  Cl  7.39832770906578      4.02494028731628      1.26627589362954
  C   7.35915859190573      1.32854091947728      1.30897433420008
  C   6.68924024059908      0.12845976942865      1.20270538855865
  C   5.32108183310184      0.10503323155284      0.93402145958343
  C   4.58931161756227     -1.20328226629731      0.77827697023357
  C   3.07081010772524     -1.04523278607275      0.93029376893333
  O   2.74278601886666     -0.80342393457412      2.29448625089269
  C   2.42574006356803     -2.31673263226437      0.57182919857173
  C   1.92735360211029     -3.35876065103281      0.25910834798851
  H   0.70102067255663      1.12740475340445     -0.39543624648475
  H   0.71878816447452      0.28688602483471      1.16504633713935
  H   0.55652574548488     -0.63462636460011     -0.33662197220240
  H   2.47567046177526      0.63461728742603     -2.06107643625045
  H   2.65738927719403     -1.09861607478704     -1.77159758228205
  H   4.04125571649935     -0.00736900600269     -1.57454741033031
  H   2.69897184006770      1.73338908395392      1.46591496286935
  H   3.01353057825820      2.22001723850956     -0.17868357042211
  H   8.41796720078402      1.38565405693087      1.51316088914320
  H   7.22613785796510     -0.80535145866329      1.32596481359326
  H   4.92987134586077     -1.92220239720330      1.52576674942750
  H   4.80731684172331     -1.63600185366406     -0.20056238010475
  H   3.34046873688952     -0.13088289680031      2.64068562016994
  H   1.47703820679303     -4.28524568485316     -0.00690759978727
