24
Coordinates from ORCA-job 23855optt
  C   1.78548804835156      0.76861105815040      0.04909770831200
  C   3.23379940510280      0.44518909100754     -0.16838209486397
  N   3.63279516263193     -0.76183611979421     -0.09025462723457
  C   4.46984960811409     -1.72103766103439      0.06094758957592
  O   4.51236365109312     -2.65116134325484     -0.89224140262378
  C   5.29677445847694     -2.10012843345154      1.22539044786218
  C   4.92887517874263     -3.27647406108915      1.89588766509746
  Cl  3.33165400297552     -3.92160377028953      1.69713001327450
  C   5.78746209186362     -3.92519539146377      2.74306620220662
  C   7.08168283864476     -3.38550791478833      2.81314258757932
  Cl  8.24560688456177     -4.25937582784132      3.76827929998794
  N   7.48785007651465     -2.30255031947921      2.24275274569477
  C   6.62369769973454     -1.57018004388577      1.49192656442342
  N   7.04502695626255     -0.43185456390693      0.96074051823290
  C   6.05554725064933      0.42153783137797      0.73193631919017
  C   5.84051792037090      1.22999479926787     -0.34579541070720
  S   4.24034166347745      1.83527259938813     -0.47330754050480
  H   1.16281081875538      0.04736549206539     -0.47683055042807
  H   1.56180977199034      1.77840104404242     -0.28974622377138
  H   1.56252835134700      0.70156339184452      1.11542483000468
  H   3.87117200638422     -2.44566003183080     -1.58926073342605
  H   5.50108125133167     -4.80539387425585      3.29494210492261
  H   5.25279193790443      0.43291535088622      1.48093114260499
  H   6.50547296471870      1.31710869833520     -1.19177715540968
