32
Coordinates from ORCA-job 23856optt
  C   0.67418834705760     -0.42808551291910     -0.55037725275595
  C   2.18325827543498     -0.33691254866235     -0.29842462863903
  C   2.90595172059241     -1.65301680807756     -0.52049619098145
  C   2.86883534510170     -2.41537050959796     -1.63047070828307
  Cl  2.05946716669099     -1.89161216812964     -3.06167334467384
  C   3.56713484705938     -3.71138453844586     -1.72451629871763
  N   3.77186457230503     -4.40066471852711     -2.76768502372236
  N   4.00794337078198     -4.20522104435824     -0.48994546488362
  C   4.04776636663024     -3.44245102936550      0.51259399959259
  Cl  4.61952622893120     -4.11625219345053      2.01281852332008
  N   3.64213673258353     -2.13487420671811      0.57504246713705
  C   4.06183072820481     -1.25720253397602      1.67158374683229
  C   2.88349948715745      0.92121475473558     -0.96725111361424
  C   4.28330527633418      0.59223321334530     -1.51453756085659
  C   2.05966755203718      1.54312332374810     -2.10666709288903
  C   3.03050408071480      1.93511974060077      0.08832468799322
  C   3.16089010665958      2.75306407538343      0.95579156598602
  H   0.27119724565194     -1.30728495521177     -0.04725231841470
  H   0.40980904172924     -0.48475454434173     -1.60103806701764
  H   0.19416170720598      0.45286595180448     -0.12228599127970
  H   2.24870380258903     -0.16249797219459      0.77027375945443
  H   3.39197080615677     -3.93781353754736     -3.58942384619620
  H   5.02343890572324     -1.59623724031055      2.04120623057534
  H   3.34467846161459     -1.26789373159615      2.49311757398447
  H   4.17919335904175     -0.24062060464357      1.30677899253054
  H   4.20403035949685     -0.09298031446449     -2.35867279707476
  H   4.92450516756313      0.13954113324603     -0.75763479625946
  H   4.76180858889659      1.51047029751057     -1.85378557058466
  H   1.92284220135372      0.82616437389837     -2.91390453229784
  H   2.59634678943845      2.40819316224624     -2.49595362135784
  H   1.08495983669525      1.88130671626751     -1.76032723392732
  H   3.27558352256637      3.48783396975183      1.71679190702091
