24
Coordinates from ORCA-job 23867optt
  C   2.48771037806938      2.27927869518676     -1.15388575665964
  C   2.99720078779228      0.94262087155281     -0.74769425854437
  N   2.28373131096303     -0.13645601324806     -0.56358636600264
  C   3.16172863962948     -1.12477046486545     -0.20599634913341
  C   4.43036531597711     -0.62090703214513     -0.17597027531993
  N   5.61627289416408     -1.28783701363590      0.13694841024051
  C   6.87027964024151     -0.81754549345074      0.15488737190422
  C   7.98028415756363     -1.57164852251970      0.46332352445830
  Cl  7.80103004943703     -3.23388577280685      0.85656155281381
  C   9.23492443868573     -0.92747683169487      0.43843221396701
  C   9.37052746748484      0.39589826979597      0.12440753936950
  C   8.21931583014780      1.18402709351065     -0.19350015025906
  O   8.13287923349425      2.33700937054636     -0.48369523757065
  O   6.99006921426165      0.47016338751369     -0.15332115603848
  C   10.41172105988510     -1.69246164038225      0.75551389293018
  N   11.35160468337401     -2.29766633497809      1.00790916902440
  N   4.32351599592158      0.69944007341394     -0.52157416548808
  H   1.41047729593334      2.21016963318672     -1.27837412779594
  H   2.93142942715452      2.60353504061356     -2.09652783609026
  H   2.70743208951430      3.03518566573403     -0.39831858741242
  H   2.84409432330609     -2.13177668740934      0.00998173666850
  H   5.51445457561418     -2.26505375303499      0.37013355873046
  H   10.33049632010655      0.88553122885319      0.10485042478648
  H   5.08245487127844      1.35762623026367     -0.59250512857851
