24
Coordinates from ORCA-job 23863optt
  C   4.04719244273876     -0.07676997912394     -0.17971711161398
  C   4.56266609013034     -0.91727153341859     -1.30031807632373
  C   5.85274599203175     -1.09007875669262     -1.60449891143658
  N   6.94898051644222     -0.62755516448964     -0.85139564328652
  C   8.00043714422501     -1.29589665735769     -0.96597497470297
  Cl  9.44068694734696     -0.91896837259038     -0.13034979821557
  O   8.17655286600000     -2.42024438944960     -1.73500296305720
  C   7.17395359105901     -2.59077242593259     -2.66417310720925
  S   7.46565126915780     -3.95091944363338     -3.73015362661168
  C   5.80077398042270     -3.99186527258080     -4.52827749854103
  O   5.92781708789553     -4.07493384412319     -5.86364519652035
  N   4.68330712365759     -4.00601551412413     -3.99949485667237
  C   4.32284019859719     -4.14759959067752     -2.66450557346048
  C   3.78713438892748     -3.23043091058576     -1.86037227022514
  C   3.60247330477186     -1.76594877260873     -2.09695883010189
  N   2.67022481914397     -1.33198146172790     -2.83115222622502
  N   6.13477871485733     -1.90434136808433     -2.70987484014369
  H   4.85693351508555      0.46666255202063      0.30270121542563
  H   3.54006763672515     -0.69151765508625      0.56804248723491
  H   3.31161368722886      0.63971171993880     -0.55326948277980
  H   6.80883836438830     -3.79502769132078     -6.13705470665922
  H   4.42769221002014     -5.16318756709584     -2.29323413393989
  H   3.53801753815536     -3.56098571678087     -0.85731181602087
  H   2.67862057099106     -0.31006218447485     -2.85600805891327
