26
Coordinates from ORCA-job 23865optt
  C   0.89964383134073     -0.13732638909175     -0.34032807784630
  C   2.21327750312348      0.48788289338976      0.13993469128193
  C   2.64711569825388      1.68587395608689     -0.68764958176053
  N   2.84603812733269      1.31152891254925     -2.07263628730259
  C   3.17698966641452      2.23397796624442     -3.01541719754943
  C   3.64297420244026      1.97678311250871     -4.29367130257878
  N   3.90592014976687      0.75607278015239     -4.80528896338092
  N   4.33237646952449      0.55066115696153     -5.95657985731927
  S   4.64676500628489      1.85338296807953     -7.08174008564407
  C   4.28115816205378      3.30855635060008     -6.23849600364688
  Cl  4.53428679306132      4.77036650111653     -7.10170344185573
  C   3.82922983009643      3.26864594989942     -4.97419546679911
  C   3.46037839383531      4.27947088299512     -4.04041350321881
  C   3.07565735929729      3.66532149734112     -2.87807571812760
  C   2.05680338788382      0.87739526108878      1.59032876825820
  O   2.17201096335930      1.99401222288803      2.01157612943368
  H   0.99811784252051     -0.51172341252051     -1.35759825283181
  H   0.10236635806110      0.60769435987810     -0.33010059925626
  H   0.60291219037858     -0.96788023605047      0.30166044945753
  H   2.99443219306632     -0.28365877005854      0.11293442116985
  H   3.55081333236699      2.12567898848871     -0.25117639491645
  H   1.86550068594823      2.44740872449885     -0.63121061941197
  H   3.17089742439593      0.37445253135496     -2.26314131220456
  H   3.48879413926720      5.34051932780887     -4.23053135270389
  H   2.74833057670102      4.17299391476893     -1.98324887070961
  H   1.79220971322501      0.04290854902124      2.26976842946345
