30
Coordinates from ORCA-job 23876optt
  C   0.79376021540055     -0.00240419483591     -0.12456985651474
  C   2.29547628432112      0.07058256255398      0.11926545827955
  C   3.08334184287555      0.00944632786425     -1.19946079519934
  N   2.71012228471224      1.02581824941811     -2.18233346025607
  C   2.85948875672639      2.40374399447730     -1.73722386529106
  C   4.60605777215525      0.02182524705281     -1.03609931992671
  C   5.44052288742012     -0.35439094439970     -2.04414779902001
  C   4.91233012654667     -0.83536156552401     -3.36944115433641
  C   6.87909961003293     -0.31060499736361     -1.90435129748989
  Cl  7.87727891325223     -0.79573484241920     -3.21729692546748
  C   7.48912971784265      0.10413354530086     -0.77393580510251
  O   8.79876090342017      0.18767525511789     -0.52539057886948
  C   8.92523576341483      0.68377277807764      0.81123580069645
  O   9.99719272413880      0.85108030006795      1.28339801143946
  N   7.66022271378531      0.89133984043933      1.34511206252731
  C   6.82198999964090      0.54785794362330      0.41168472475323
  S   5.12571730342669      0.59796232689186      0.52015366184424
  H   0.25199015400327     -0.06609816595492      0.81825891548959
  H   0.53237724239065     -0.87957301157377     -0.72072862226642
  H   0.43310208129472      0.88372699444392     -0.64937222803993
  H   2.60823124904827     -0.76226187604546      0.75392437301642
  H   2.52224871272249      0.98579618732937      0.67093015632910
  H   2.83539282001385     -0.95545712949862     -1.65021509965504
  H   1.76107886412627      0.85695213614679     -2.49286235357169
  H   3.90787147466253      2.59717736666254     -1.50556700492119
  H   2.26223337194315      2.66377785816402     -0.85412060038703
  H   2.57387224985802      3.06885815900872     -2.55057475609942
  H   3.83160903659060     -0.81251547224099     -3.41226465444076
  H   5.27304425648906     -1.84522513301292     -3.57081373873021
  H   5.28622066774464     -0.19489973977156     -4.16919324878993
