21
Coordinates from ORCA-job 23878optt
  Cl  1.03692623710504      0.08719973782729     -0.66051996386470
  C   2.66885073821958      0.05839061275258     -0.16817257466285
  C   3.48059570124201      1.15989869698901     -0.16170311525794
  C   3.07026706546997      2.52916575294427     -0.56950491135328
  O   1.98234896235709      2.81817470351482     -0.98977850620461
  C   4.87664932318813      1.05234669848163      0.27678897822738
  O   5.67341988870822      1.93640180210749      0.32163378047885
  O   5.32833718299451     -0.21875640747696      0.67914706524113
  C   4.49281116963665     -1.23902094289359      0.66110471190594
  C   3.19528788222294     -1.18531886619606      0.26496181223252
  C   2.67485985404440     -2.59000077118549      0.37819470307094
  O   3.33564266312263     -3.41502477374577     -0.59247463694514
  C   4.72778532732823     -3.48243675465361     -0.24725155306706
  C   4.85641861246643     -2.63180655034892      1.04291702762343
  C   3.46075656798742     -2.99356296736774      1.64055342894117
  O   3.15104831373976     -3.42719829042842      2.69660200078602
  H   3.86402729106789      3.28100874496176     -0.44822678876987
  H   1.60517667859104     -2.75533409050482      0.35027985247448
  H   5.32733562278646     -3.09009690214646     -1.06859215800251
  H   5.00214170207174     -4.51920135307157     -0.04850174074576
  H   5.73831321564981     -2.78182807955945      1.65354258789185
