35
Coordinates from ORCA-job 23888optt
  C   0.84524824814956     -0.50383156397394     -0.83098587002684
  C   2.11845068354309      0.04761800724383     -0.18824930455721
  C   2.87941395689498      0.93716304892626     -1.14603939846680
  C   2.87308805133806      2.28458096322184     -1.03093795531424
  S   3.62313616439774      3.37697752546776     -2.15809487992239
  C   3.85940981112252      2.32572987850319     -3.56851972584690
  N   3.74214990574213      2.91167942142992     -4.68013218483054
  C   3.85463275711808      2.22215911720007     -5.94866021367835
  C   4.22580519090223      0.92522881089188     -3.27321680506787
  C   5.23411861669096      0.24093321439224     -4.15722956781173
  C   3.67348079410019      0.31638129691127     -2.20332451979373
  Cl  4.02467855757269     -1.38289127711725     -2.00317750196656
  C   2.26722126015600      3.02025996608434      0.15652056678105
  C   3.30450135972442      3.17557638122438      1.26439630718133
  O   2.77115306747516      3.86026125104365      2.36875975150113
  O   1.84788232104227      4.32715457679083     -0.16122796202804
  C   0.65229426469304      4.36938420999895     -0.91074436267078
  H   0.31723172185973     -1.16610490334710     -0.14440928659586
  H   1.08056107283272     -1.06916140027835     -1.73357762138879
  H   0.17404390758794      0.31067479816718     -1.10925439417157
  H   2.75583188607771     -0.77738815277341      0.12681473220678
  H   1.86734648031490      0.58899707820208      0.72009776368794
  H   3.16555210755555      2.69888352807881     -6.64481203443004
  H   3.61746038789643      1.15741160471296     -5.89855515841609
  H   4.85949016742140      2.33989871010280     -6.36172193900096
  H   5.75688287859945      0.96596135448932     -4.77470762687699
  H   4.77096828750772     -0.50127699239985     -4.81106880328065
  H   5.96673122231297     -0.28265411246434     -3.54366340865896
  H   1.40684621121865      2.46350891401044      0.53932488465169
  H   4.17648484066656      3.69584984274076      0.85057682978644
  H   3.62392674864126      2.19100394442123      1.60627777487021
  H   2.37676653673815      4.67309942479184      2.03183303221432
  H   0.41478078647111      5.41680958732650     -1.07994397536047
  H   -0.16452381510961      3.89337767970140     -0.35821103942932
  H   0.77395356074418      3.86974426627847     -1.87613610328915
