26
Coordinates from ORCA-job 23883optt
  Cl  3.34503184160385     -2.05095978449816     -1.15159694163694
  C   4.65653966216153     -0.99705682414333     -0.71679192727284
  N   4.33365340285466      0.15823447843035     -0.17057902793224
  C   5.36190357699796      0.93397214224126      0.13404555154132
  C   6.72123240405568      0.67199632230096     -0.05590142700980
  C   7.61161643089907      1.83741910047925      0.34397674456725
  C   7.47535281563984      3.06635941411335     -0.62864140805256
  C   8.14985890686544      2.56259910820289     -1.85493476629734
  C   9.48341059926321      2.60570930048569     -1.98840417718214
  C   10.02970618202612      1.29355168168000     -2.11595211151647
  C   10.11005820456531      0.17573343912171     -1.66818137010718
  C   9.65149464346486     -0.82988696903617     -0.68904901104679
  N   8.25854844540517     -1.20664151179499     -0.84881336099574
  C   7.04256615039432     -0.59493328266806     -0.60583788908614
  C   5.94363654306161     -1.41386400113085     -0.94701831713466
  H   5.09767614109515      1.88640184434543      0.58610262659120
  H   8.66325901499256      1.55912779316269      0.38945704661858
  H   7.31827159546168      2.15915506005699      1.34550120196086
  H   7.99627022006690      3.92183373968502     -0.19700287333818
  H   6.42244003913550      3.31484842470619     -0.76353310184960
  H   7.63497842051526      1.74149208280023     -2.34605059058748
  H   10.08690039161366      3.37924207072460     -1.52691275503496
  H   9.81680934902602     -0.40693708728360      0.30629430257063
  H   10.22331814013804     -1.75629343267747     -0.72670926267827
  H   8.14984082432835     -2.06744962511383     -1.35659315091724
  H   6.11362605436812     -2.39065348419017     -1.37987400417326
