28
Coordinates from ORCA-job 23884optt
  C   0.92745777542857      0.07673400848581     -0.01523169851647
  C   2.42450146463732      0.10247978730351      0.03933430357584
  C   3.19546630034092     -1.05713428526394      0.08613878776161
  C   4.57841384268512     -0.95572843925643      0.15067009659149
  Cl  5.51597109683209     -2.41480579863106      0.24056968547498
  N   5.25520010727584      0.18030270397764      0.15833736494239
  C   4.52692248442303      1.27600799342886      0.09139144337493
  C   3.12466358859016      1.30086075814468      0.04786060750296
  C   2.73175339054540      2.70657368332306      0.06309855909816
  C   3.85399833475258      3.47848463674843      0.12173180468298
  N   3.40867116558340      4.76678817492270      0.10788649829238
  C   2.03944948447111      4.69887425753469      0.05892379076344
  N   1.59553900885605      3.46685988804550      0.02704472526163
  C   5.13663958053333      2.68860957632812      0.09098508206004
  N   6.07784347966791      2.82389133292444      1.19440067503026
  C   5.90680993656595      2.97303301615263     -1.20989392248396
  O   7.04716956836641      2.17911955814661     -1.34406191987505
  H   0.54143913129821     -0.92888369799234      0.14222769373068
  H   0.57844028943792      0.43802949901142     -0.98431940003563
  H   0.50764214483479      0.74639749724135      0.73625382424467
  H   2.72984635545566     -2.03302253159626      0.08724832026185
  H   3.95229514671166      5.61266160403849      0.13960262176091
  H   1.42952136213379      5.58794123825669      0.05432017904891
  H   5.68842509196633      2.48127272944397      2.06401778312028
  H   6.36367731843180      3.78792977651329      1.32113818843854
  H   6.17345554800478      4.04196793743004     -1.20793808300879
  H   5.24923394049631      2.79505907422810     -2.06367022884176
  H   7.30855306167343      1.88869602110995     -0.45906678225726
