28
Coordinates from ORCA-job 2389optt
  Br  1.01965698862689     -1.03524065124148      0.84534912497835
  C   2.82996068229257     -0.68413155560527      0.46394229048958
  C   3.67972145040438     -1.71576178549508      0.11218008405092
  C   3.16821478752743     -3.13515907409751     -0.20292485020425
  C   4.27953326364688     -3.71100152540793     -1.03543340234293
  C   5.42092805369495     -3.54323373256757     -0.03560087785885
  C   6.11877467877507     -4.85524678818061      0.20515294050570
  C   5.05925607622499     -5.54402396604023      1.13067904833505
  C   3.52455283039150     -5.29319089823006      0.92943922839351
  O   3.01988799297521     -3.94817292362696      0.97298387621603
  O   6.01317044488516     -2.27128713827974     -0.32405720473229
  C   5.04964136378305     -1.34330433860024     -0.10456762665716
  N   5.48707298534865     -0.09970469363653     -0.08485923096476
  C   4.63176740898106      0.86136246038101      0.21492110794983
  C   3.29562972458676      0.63419602603577      0.53132367680224
  C   2.45606112863952      1.73684436779989      0.88013364960761
  N   1.81017314410708      2.64512328971217      1.15385435065023
  H   2.20109499616620     -3.06275188990531     -0.70284646882257
  H   4.47580901258827     -3.11795626068846     -1.92774187201761
  H   4.10836272768920     -4.73547601147671     -1.34469441496341
  H   4.99737611507152     -3.35090276963936      0.94638469478802
  H   7.05498538113167     -4.75492396637374      0.75304460827328
  H   6.30880640240806     -5.41097655832061     -0.71301516361043
  H   5.17797081003479     -6.62920385061997      1.10695899159031
  H   5.28698237135239     -5.22516046677423      2.14991631508274
  H   3.03738521863394     -5.76985845282626      1.77905202185802
  H   3.15860169553048     -5.80363853562740      0.03623919739720
  H   5.01362226450227      1.87578168933244      0.22018590520561
