35
Coordinates from ORCA-job 23893optt
  C   2.54585059177323     -3.08508588106662     -0.13113463487919
  C   2.21204315180451     -2.21752358485271      1.07697605391471
  C   2.90455241079889     -0.84203988034173      1.14284909629938
  C   2.53460847231534     -0.02176946324278     -0.09966575368394
  C   2.35879690124308     -0.11559686002023      2.37670483203308
  C   4.45278040642364     -1.01971465952169      1.19862830526431
  C   5.22793314394629      0.29729938123921      1.10474691824244
  O   6.62634377829711      0.09491703028596      1.05671062451263
  C   4.90168625565710     -1.82161989356843      2.40024041467399
  C   5.10477240946113     -1.23453518615507      3.65221749624107
  C   5.50098746364680     -2.02176748238600      4.71661244374792
  C   5.69089749917391     -3.37701530150152      4.51021600844342
  Cl  6.18063227935997     -4.38675112187243      5.81490077028391
  C   5.48585755335250     -3.89686037119201      3.22808764164760
  N   5.10205558318466     -3.12260064498342      2.21055548581775
  C   5.68961681673797     -5.28952215704165      2.95166140640038
  C   5.86268154503656     -6.45190349067455      2.72190590995840
  H   1.93544928736969     -3.98867823409568     -0.12178182126887
  H   3.58932035791778     -3.39878302589885     -0.12102951288422
  H   2.34577100713426     -2.56560397100103     -1.06948043038698
  H   2.44147507520440     -2.77489946129427      1.98935738008034
  H   1.13358021053769     -2.03019750750601      1.09765877567804
  H   1.46081223972792     -0.09735679776622     -0.28449141729908
  H   3.05680529510416     -0.37415350184577     -0.99082078843831
  H   2.77061022574177      1.03506201501491      0.03332176120121
  H   1.29033599517657      0.06665517410725      2.24494595590642
  H   2.83811242506858      0.85308949295259      2.53207394294027
  H   2.47996224746301     -0.71179790057545      3.28245838145330
  H   4.74258100162560     -1.60818427122005      0.32543788166236
  H   4.96512760989192      0.97587588507916      1.92415399750381
  H   4.97816694479032      0.80326616416672      0.17446669224244
  H   6.90555852953754     -0.38666485290781      1.84217376504087
  H   4.94592913092410     -0.17352604922276      3.79266820836555
  H   5.66303019779573     -1.60088087736859      5.69995464708361
  H   6.01927595677618     -7.48313271372241      2.51171956220132
