25
Coordinates from ORCA-job 23903optt
  C   1.23722524674171      0.02700257391983     -0.60160694711323
  C   2.65066998824384     -0.05373170732235     -0.04468554753862
  C   3.15909465236264     -1.47480077255768      0.17323814307373
  O   2.20471612027093     -2.51104616919021      0.07806780753833
  C   2.74369909557301     -2.23021360817078      1.36043581206038
  C   1.85546822566836     -1.57093461494394      2.35026236314599
  C   1.80914293681473     -0.24670750892182      2.58627010485343
  C   1.10910443702122      0.39946193411215      3.65302260249319
  C   0.68763288093484     -0.35029027527427      4.69431128933705
  Cl  0.08800318470736      0.34162746437187      6.14291313221692
  N   0.75362831350978     -1.71362749647637      4.68237565562310
  S   0.73194851119142     -2.56436560854075      3.24367574741902
  O   -0.55920807501380     -2.43290194330547      2.66014588984097
  O   1.26848264384279     -3.85453447295556      3.53024017188263
  S   2.80059993682755      0.80675079696177      1.52032142827302
  O   4.16699719224536      0.71138346631138      1.94791333112681
  O   2.14834044998390      2.08315343788261      1.45449222116003
  H   1.19726858303730     -0.51596827641535     -1.54518092201317
  H   0.95887538449595      1.06539259076964     -0.76719641844189
  H   0.51842835256405     -0.43739818218683      0.07309059928688
  H   3.35235977553613      0.49242021633275     -0.67882886344603
  H   4.12647650623827     -1.70465526062454     -0.25703882535769
  H   3.39198334286151     -3.00305287468335      1.75911993308493
  H   1.01474781565266      1.47434046605318      3.66504596937669
  H   0.70031449868850     -2.24830417514589      5.53959532211751
