29
Coordinates from ORCA-job 2390optt
  Br  0.98311379177519     -0.10924994245454     -0.29056952445155
  C   2.86511419554825     -0.15092852605721     -0.07438811748949
  C   3.51700866436693     -1.29670488645834      0.35278831926183
  C   2.87776345144600     -2.62538183015691      0.66898574399042
  C   3.11265117129139     -3.61966010677525     -0.49450059631934
  C   4.45017856415733     -4.36013994910842     -0.43610084713057
  C   5.70127801206834     -3.48590332289664     -0.31117715015822
  C   5.65889811243656     -2.46468058711684      0.85791880202713
  C   4.97915000862066     -3.12714642375280      2.04093476238622
  O   5.58194660847809     -3.64393276470311      2.94351305129715
  C   3.44943326780564     -3.12268783411654      2.00270217533828
  C   2.91378776808915     -4.47052367025276      2.44180232197039
  O   1.95095138854515     -4.98644021065763      1.94859156748753
  C   4.91241734667894     -1.21799821816976      0.45217383796636
  N   5.62389080098610     -0.13489387995280      0.17427032562217
  C   4.96402072272904      0.94872450489003     -0.22867864226901
  C   3.58814144473898      0.99597486141921     -0.36966505245394
  H   1.80394103058005     -2.49577568944980      0.78898919435803
  H   3.02852999522874     -3.06641526065221     -1.43317861932395
  H   2.31239472063057     -4.35817246678207     -0.48236100189479
  H   4.54512752850509     -4.98120169792507     -1.32826852375186
  H   4.42926405335242     -5.06432088537593      0.40282246605271
  H   5.87520662891151     -2.92807346680231     -1.23382314368323
  H   6.56372491707874     -4.13524030439797     -0.15612109890355
  H   6.67192596079351     -2.19096096030251      1.14394057198060
  H   3.16035720441137     -2.42607152861834      2.80216365478530
  H   3.47493537512067     -4.95092155422066      3.26100349639061
  H   5.56303827076432      1.82345958012869     -0.45432516334478
  H   3.09280899486124      1.89626702071853     -0.70344280974046
