31
Coordinates from ORCA-job 23900optt
  C   3.34784246203800     -0.81710168772620      0.96056700873456
  C   2.58313729519696     -0.08054209264267     -0.13239646313959
  C   2.81988195845015     -0.66503338824395     -1.53285192526797
  C   2.11446478164585      0.14966407313007     -2.62945364851814
  O   2.55018071464356      1.48969479283571     -2.68730772394413
  C   0.59993665640063      0.05105647213176     -2.47984850946833
  N   -0.19954433274177     -0.72389319696651     -3.41586519930354
  C   0.02797156618852     -1.25010455779601     -2.06699205592026
  C   0.99272364673012     -2.36520253752586     -1.86866178384976
  C   0.60418057100008     -3.69650254282463     -1.92746712040095
  Cl  -1.05413993795311     -4.08750791213953     -2.23825685476584
  C   1.53233836478917     -4.72647115433978     -1.75093060684630
  C   1.13384989905098     -6.16873642640031     -1.81238166286937
  N   2.81339949443782     -4.44334423910850     -1.52866311595765
  C   3.19813857629342     -3.17381356602412     -1.47509035463863
  C   2.34254473321626     -2.09216258921386     -1.62946582621195
  H   3.20039703850237     -0.33994685649960      1.92921008884767
  H   4.41895922792981     -0.81998477305563      0.74794398926987
  H   3.02077674382090     -1.85390784489847      1.04458917423344
  H   2.89773826395597      0.96665489422365     -0.13419719439854
  H   1.51134746817454     -0.09903827399938      0.08794849699820
  H   3.89464206127591     -0.63891817248600     -1.73592216064702
  H   2.40145781441353     -0.27610660435177     -3.59440128564426
  H   2.23592261171675      1.96292297843787     -1.91051917808044
  H   0.11961812669404      0.96477173446533     -2.14412485585104
  H   0.39699330046888     -1.19988327402987     -4.08778907857983
  H   -0.86829527465115     -1.28913799862145     -1.45960601310982
  H   0.36895577147464     -6.39312523494395     -1.06717338889869
  H   2.01033542519763     -6.78500358063724     -1.63332224227638
  H   0.70894063764584     -6.41226326273192     -2.78777109672767
  H   4.25530433399367     -3.00103317801717     -1.29579941276762
