26
Coordinates from ORCA-job 23908optt
  C   2.84367748730930      1.43476334399147      0.32633134916275
  C   2.44535505002471      0.02292902038178     -0.07621786731840
  C   2.98417565814142     -1.06671547357242      0.88507914434852
  N   2.42373391576061     -1.01001568612799      2.23757141560144
  C   2.50402029969234     -2.37912344954843      0.39190417111889
  N   2.02602232975976     -3.36912100105908      0.07180821755966
  C   4.52939466493851     -1.05061242443077      0.90929564325280
  C   5.22481449371391     -1.61356276876401     -0.11169613717644
  O   6.58330929905961     -1.70619029886725     -0.12285622437331
  C   7.35450166944135     -1.27324402922607      0.89168355907481
  O   8.54818406048695     -1.41839704049995      0.87341357912346
  C   6.66563357347732     -0.57246827890331      1.96529671592276
  O   7.45644973587330     -0.04733288202041      2.90098383058021
  C   5.31974760557290     -0.43287484659647      1.95543864965630
  Cl  4.67918062495815      0.58977904413139      3.18258969555560
  C   4.68149661777148     -2.13680767988461     -1.31788797583068
  C   4.26009723999357     -2.55067826609793     -2.35976994147863
  H   2.43444810154455      2.14986116207767     -0.38627546794108
  H   3.92791884347351      1.55705640171280      0.33519331460571
  H   2.46614637794762      1.70540920017378      1.31299859131599
  H   2.80952273673671     -0.19586570437635     -1.08152142020387
  H   1.35778849866197     -0.07784163939020     -0.09603715385565
  H   1.48838983057764     -1.39840307083215      2.23204468764571
  H   2.37284873223384     -0.05953272710302      2.57716889707285
  H   8.36851771313269     -0.28927924481705      2.66569515202494
  H   3.87062483971619     -2.93473166035138     -3.27323442544435
