29
Coordinates from ORCA-job 23916optt
  C   2.14855865761966      0.03283115547702      2.53685239933526
  C   2.33970232234954     -0.07251781278826      1.02763135313771
  C   2.90030514910511      1.16492948864085      0.30951123043992
  C   2.80317457266144      0.96506518590018     -1.19814037494011
  O   2.15247551349858      2.33876911008135      0.66164139631684
  C   4.33737115942277      1.47132834876378      0.73429631885444
  C   5.47976108737470      0.92363564229718      0.00593956413916
  O   5.09255293885266      2.28349736216688     -0.15320961311652
  C   4.60341471616476      1.85288861155885      2.17125574414414
  N   5.46323046260102      1.20258068108239      2.86370255689805
  C   5.72573507623899      1.58396860837436      4.19719919078442
  O   6.50108806836838      0.95853797364667      4.88059066289540
  C   5.00352114343110      2.75738918567042      4.69992011425400
  C   4.12798744201560      3.37487438416650      3.89730950657081
  Cl  3.20318553709839      4.74627149541939      4.35974956148947
  N   3.91534617408509      2.93974518452463      2.62197704538382
  H   1.57633345971637     -0.82342901417402      2.89339424249377
  H   1.59954332927442      0.93692811436020      2.80212467736737
  H   3.09584558497752      0.03131258868947      3.07380557431069
  H   1.37257934715416     -0.28609243414467      0.56036752731028
  H   2.98794278599206     -0.91963895729534      0.78892809431389
  H   1.74839900530889      0.95627676014451     -1.48031595350436
  H   3.22605401697577      0.00856017155015     -1.50285318666240
  H   3.30456903657003      1.77290715599428     -1.72753101570816
  H   1.25332450939083      2.25199875742598      0.32886793201823
  H   5.30731976271936      0.30009483979795     -0.86243712805711
  H   6.39931376855052      0.76122512938418      0.55207158507399
  H   5.18441154997554      3.09219135009411      5.70910526635697
  H   3.17995382250657      3.32787093319095      2.04324572809997
