27
Coordinates from ORCA-job 23917optt
  C   2.47021390558782      0.87315330432518      0.69665334996719
  C   3.73796721646517      1.40069600038418      0.03507401506034
  C   3.58657967279177      1.65198601095282     -1.45173862335096
  C   4.41461045651024      0.90142599077443     -2.18927701264065
  C   4.58201080775017      0.82960292302182     -3.66546028505294
  C   5.20538900947778      0.09697710444618     -1.25761067086378
  N   6.14208191663633     -0.79761173222677     -1.32244311362764
  C   6.38277906246848     -1.09553503748659      0.00910130786133
  C   5.55026709651812     -0.34135073309863      0.87208739773411
  C   5.61733283163229     -0.46164303466544      2.25190213378885
  C   6.55754729704828     -1.37448042631505      2.72411103116778
  N   6.69311774919434     -1.62898509316221      4.07630231777534
  N   7.35815611232195     -2.09909611845532      1.92483395768265
  C   7.27336165936929     -1.96685453480988      0.62456372366690
  Cl  8.33030796143583     -2.92607367335375     -0.34858214202664
  N   4.80427249589985      0.41572733027966      0.01946499127891
  H   1.67930588308386      1.62090730172720      0.64087735730880
  H   2.65198498933821      0.63953196196824      1.74581196943205
  H   2.13685491176632     -0.03164163618758      0.18853435748655
  H   4.07698049029608      2.30728253078780      0.54680794767335
  H   2.86277488816686      2.35807769823241     -1.83423866174808
  H   3.89777432426299      1.50651357050081     -4.17327141807540
  H   4.40512167987890     -0.18832028797030     -4.01584260196821
  H   5.60689048431845      1.08510938308494     -3.93887171419146
  H   4.98791274775621      0.10207655733106      2.92596988424042
  H   6.43411816380709     -0.88779477105980      4.70563089254987
  H   7.55228618621725     -2.09868058902539      4.31560960887135
