28
Coordinates from ORCA-job 23927optt
  C   1.22584497102824      0.50770267835422      1.00828101581524
  C   2.49362663392558      0.26152812372891      0.24010199550925
  N   3.06318819466242      1.26906412465800     -0.30709515494326
  C   4.31056204604549      1.21224395298091     -0.86170366834521
  Cl  4.74269484314415      2.59575271420163     -1.81259157209868
  C   5.22291064296022      0.26484601130492     -0.60903688861442
  S   4.83032179101680     -1.18044045841473      0.24731718654325
  C   3.06265273951239     -1.12179458997411      0.19091381525248
  N   2.47451081823940     -2.23684083872332      0.18205354088380
  C   1.03324449393468     -2.37403469757312      0.15563718895609
  C   0.65906085450265     -3.78174322621846     -0.20433059056382
  N   -0.55494971270731     -4.15976051298837     -0.42464442972492
  C   -0.60179990821974     -5.49999368533762     -0.71930566156731
  C   0.59338387960150     -6.14670124238959     -0.72012068581113
  C   0.86593814789071     -7.59066172072204     -1.01755175903183
  N   -0.38171205317680     -8.34393913852629     -1.01137996307761
  S   1.84406550741943     -5.03053486071443     -0.33343718375841
  H   1.17188038305597      1.56734160636939      1.24415583173255
  H   1.21256783055969     -0.07574660278530      1.92929825003047
  H   0.34249526033634      0.23596939683734      0.42940538599975
  H   6.25627010510177      0.36588398187191     -0.90798558964501
  H   0.56709882817807     -1.70455914690924     -0.57259715881529
  H   0.59878763134311     -2.14770237980495      1.13368335062251
  H   -1.54695698670834     -5.97180488875987     -0.94084928677875
  H   1.61494862263491     -7.96846138682163     -0.31007702660322
  H   1.30542195905580     -7.67856283094773     -2.01436352776630
  H   -0.77422633231091     -8.37084230294554     -0.07727882885043
  H   -0.22283119102626     -9.29920807975083     -1.30449858534978
