30
Coordinates from ORCA-job 23923optt
  C   0.72390412711672      0.36301345165465      0.46993674099826
  C   2.17120465362369      0.73156508072927      0.70922465365327
  C   3.03095143895563      1.11696673064820     -0.51978566386704
  C   2.41134250340952      2.46108709671827     -0.80327428568073
  C   2.06232996496559      2.95702194987944      0.39361702636429
  N   2.35984575703081      2.02526230759638      1.44774117663340
  C   3.85953127014680      2.04167034590854      1.54000433562956
  C   4.39389264364386      1.44176771464152      0.19385377723857
  C   5.26197203920105      2.42719441431330     -0.58573267115957
  C   5.20033641018712      0.16418854700314      0.42142654795178
  C   1.58581370010319      4.30335342406727      0.53363516402890
  N   1.27317242864708      4.99834074166108      1.52915120416090
  O   1.47530080949466      4.93094469674930     -0.72368821225110
  C   1.84236779585137      4.32295615413359     -1.84749232542191
  Cl  1.60982042736333      5.34660840695445     -3.19873773663090
  N   2.31262773540660      3.15021528139965     -1.99564797273652
  H   0.66846874953487     -0.58086603377175     -0.07364456122031
  H   0.19684487778638      1.12089339820050     -0.10846659851071
  H   0.21110582282184      0.24090385970230      1.42357574448346
  H   2.64443806498579     -0.05462230542247      1.29708135917770
  H   3.10467233987641      0.42034656365445     -1.35127283668443
  H   4.15299718930351      1.42884992358045      2.39269285207340
  H   4.20148926608489      3.06177919501015      1.71336677813810
  H   4.77825379597367      3.39613698921273     -0.71131830844352
  H   5.49729654737767      2.03568088279451     -1.57766065478752
  H   6.20336443995148      2.59357563842546     -0.05817047603336
  H   4.62665558806713     -0.60824203199556      0.93369280841775
  H   6.08081298565590      0.38011512159934      1.03010780561891
  H   5.54598497433908     -0.24281081649596     -0.53072738550816
  H   1.37520165309433      4.43410327144779      2.37051171436754
