26
Coordinates from ORCA-job 23935optt
  Cl  1.87657225711259      0.36452833398609     -1.43560055035159
  C   3.38245678619189      0.26298333413766     -0.61056384570799
  C   4.09162515539151      1.41630718451157     -0.34187346474007
  C   5.31627890031118      1.33031470417227      0.31676723027138
  C   5.76186560623262      0.06032238171602      0.67397894159301
  N   5.07095789331164     -1.04455299163584      0.42137249126647
  C   3.91956374734502     -0.96135021064216     -0.19970963542185
  Cl  3.07637720233187     -2.43857530503703     -0.50428459835087
  N   6.01284973313598      2.48563445777921      0.66657438024594
  C   7.45381921987230      2.56303433192951      0.56113935474962
  C   6.58637538074453      3.39528393987877     -0.31089683791088
  C   6.52182815065464      3.15867517066423     -1.81804826210769
  C   5.95562681996612      4.47770322267323     -2.34135558626665
  N   6.54504146877067      5.44590965442483     -1.41964028318834
  C   6.33873660302689      4.88311661347654     -0.08945401728610
  H   3.69405203940438      2.37938449529135     -0.63666526182455
  H   6.70397406245349     -0.06227520703036      1.19576798005870
  H   7.96481721211406      1.73144104565604      0.08408169352131
  H   7.96376603370155      3.00379072579074      1.40890337654183
  H   5.91849684351963      2.29262940966975     -2.08828474091631
  H   7.52941120014057      3.00981658658281     -2.20630089972880
  H   4.85633599303870      4.45952295491059     -2.28614620116123
  H   6.24457396927257      4.68928072833152     -3.36953995974447
  H   6.14707771461757      6.37099355957626     -1.51349783921234
  H   5.30950268439536      5.00496303238836      0.27636668008834
  H   7.02001732294260      5.32111784679803      0.63990985558317
