25
Coordinates from ORCA-job 23934optt
  Cl  1.00183103961734     -0.05105618304844      0.04178342804431
  C   2.73351654713815     -0.07850939303118      0.05047859030609
  C   3.42207389831690     -1.19091122005582      0.42213727910610
  C   2.78187024146228     -2.45825710239998      0.90622131502890
  C   2.79988373209335     -3.58074209504734     -0.14104865929558
  C   4.15734252599975     -3.67141835173584     -0.86135015868369
  C   5.29898655672890     -3.49424222603536      0.08955418487175
  C   5.58240147659991     -2.32218909728189      0.65025513673694
  C   6.69619674069760     -2.16975876400121      1.63160291656061
  O   7.50414591712283     -3.03487225607626      1.82624672854819
  N   4.80413488717193     -1.15184861542440      0.37311502323730
  C   5.55482331441035     -0.02140902701294     -0.01972400499964
  O   6.76981241156062     -0.09166172259788     -0.05772567068664
  C   4.76846716940283      1.13930647420621     -0.36230447468064
  C   3.41945720264728      1.10148987362387     -0.34057647338208
  H   1.75975600809809     -2.24434890239352      1.20650587010532
  H   3.32438239213589     -2.78593303816484      1.79435190949856
  H   2.01858673831597     -3.40955456831836     -0.88317768019375
  H   2.57012057683837     -4.52126830189875      0.36198431367427
  H   4.20454565573341     -2.87166903716784     -1.60589747734177
  H   4.23834779827536     -4.61717812865632     -1.39374980899845
  H   5.91576700662060     -4.33445343934743      0.38713664394446
  H   6.70168000458000     -1.22850064049698      2.20375009946114
  H   5.31949689375469      2.02036292149202     -0.65692986954367
  H   2.83537326467755      1.96962284087048     -0.61863916131802
