27
Coordinates from ORCA-job 2393optt
  Br  0.93529617656676     -0.81304747964667      0.57262139884116
  C   2.77908596068039     -0.61654781452515      0.30346320015138
  C   3.56908302276582     -1.66157053324656     -0.00432510904577
  C   3.00259930051542     -3.06302605113534     -0.31108917840321
  C   4.08940126792509     -3.73080076526117     -1.09305564554685
  C   5.23693295297129     -3.59649035912838     -0.08816124788055
  C   5.83940934129544     -4.93687272598032      0.21343824943431
  C   4.58151676639985     -5.69674697563820      0.74577903453173
  C   3.41015700273968     -4.89994369125372      1.41332020236784
  O   3.01750160938948     -5.27763311191895      2.47460814228479
  O   2.70684358748766     -3.84983237289474      0.85942404741450
  O   5.92895795986213     -2.40257420332021     -0.42483304860182
  C   5.01174147750779     -1.38858151348054     -0.19177872062427
  C   5.45050668614725     -0.13305778986006     -0.09865221160153
  O   4.63180813866270      0.91067128477004      0.16242144424397
  C   3.29432080935875      0.75479198780599      0.43301527288664
  N   2.57600428496552      1.74014634132705      0.74546085915076
  H   2.04814479787492     -2.95476685815954     -0.82141426495680
  H   4.33423174833325     -3.17461090414431     -1.99687399603968
  H   3.83130214194407     -4.74726977480179     -1.37210613795197
  H   4.83326724171168     -3.33733113065506      0.89031842251596
  H   6.60065912799311     -4.87054021007272      0.98925552538398
  H   6.25711168316711     -5.44841164598988     -0.65333119664699
  H   4.12995878859789     -6.28777173275322     -0.05165272073131
  H   4.86390734910772     -6.39494531227650      1.52804098897785
  H   6.48329861186832      0.15462246031217     -0.22065070448702
  H   3.12295216416083      2.59814088192783      0.76975739433291
