27
Coordinates from ORCA-job 23949optt
  C   2.02101831807973     -0.24523818766394     -0.63673625468387
  C   3.42117063287250      0.20634658965569     -0.32799123092256
  O   4.36238080898402     -0.55169631423568     -0.38227450457523
  C   3.58594865959422      1.66346372430345      0.07600903474602
  N   4.93895196211825      2.14108362816177      0.18534609299383
  C   5.62878007603131      2.37862904800802     -1.02421753759662
  C   6.39739445161725      1.53621046237641     -1.81034465828007
  N   6.71606390838470      0.22285520908063     -1.74318246727830
  C   7.52935612525704     -0.35144296435436     -2.64715892115792
  C   8.06197943284255      0.39666997035504     -3.67225775631689
  Cl  9.11298457010982     -0.38720673620845     -4.80152703513805
  C   7.75852589647083      1.75632954392664     -3.81991400020605
  C   6.92320865877438      2.33980211045094     -2.89315695678906
  N   6.47820288286868      3.61377981917770     -2.80499114882026
  C   5.72483584111680      3.62947481110260     -1.69748659942449
  C   5.06594982988401      4.81254616109443     -1.24729278540566
  C   4.49673708703956      5.78783417093182     -0.84338320242794
  H   1.96332970434397     -1.33042870459349     -0.63452635524229
  H   1.75268783414960      0.12773130675246     -1.62827079762924
  H   1.30880757646944      0.17974493919421      0.07139316223228
  H   3.06902588286595      1.77574329586419      1.03685943159989
  H   3.03742783695056      2.29006543405184     -0.63266408516944
  H   5.48038161458155      1.58883512230376      0.83697012915288
  H   6.23340700536261     -0.34140777702831     -1.04769084436112
  H   7.72652992276172     -1.40628808182894     -2.53548366474162
  H   8.17092483450229      2.32796128939211     -4.64114077010412
  H   4.00398864596656      6.66360212972938     -0.49488627445405
