27
Coordinates from ORCA-job 23946optt
  C   1.10505702562864     -0.55043698561935     -0.57358047597082
  C   2.57923093340799     -0.35810938150411     -0.36738046773774
  C   3.45851720800810     -0.21276222314882     -1.43330265885002
  N   4.76783146770495     -0.02880031612662     -1.30048664552288
  C   5.30808944671696      0.02593674780530     -0.08447250485143
  C   6.79579296717146      0.21303100990174      0.00925157371357
  C   7.54259787032591     -1.10787517927771      0.23253387786529
  C   7.36752817401057     -2.07007564333626     -0.92959701762488
  C   8.11036950178776     -3.36690701778290     -0.73254676130003
  O   8.77548631971865     -3.61879808999134      0.23860362714911
  C   7.97193237149075     -4.33498352385073     -1.82346172523555
  C   7.83504929773240     -5.10311664036859     -2.73240976237963
  C   4.49419144590550     -0.11856632001503      1.04335768245715
  Cl  5.17127801332326     -0.04766528470705      2.63686341743923
  C   3.13351937621766     -0.30822769973509      0.90554667676940
  H   0.86261708894228     -0.60095453809953     -1.63412587553399
  H   0.54035752109632      0.27386604204380     -0.13530147273192
  H   0.76179338843734     -1.47220022429851     -0.10175350775433
  H   3.08302051705695     -0.24538167961091     -2.45134441081712
  H   7.03053250519983      0.89706041574014      0.82563748102440
  H   7.12512951190822      0.67004173083317     -0.92457838205862
  H   7.19870307493585     -1.58179902011132      1.15373647635193
  H   8.60452307069977     -0.90184411332612      0.37411869780984
  H   7.71185318874066     -1.63097881160141     -1.87243601334547
  H   6.31429116410570     -2.31375211256256     -1.10280049354714
  H   7.72329351689784     -5.79916542630456     -3.53019813094507
  H   2.51341403282860     -0.40953571494566      1.78812679562673
