33
Coordinates from ORCA-job 23952optt
  C   2.92226020956752      0.74052738180247      1.18354530111113
  C   2.46826636895469      0.24667066507407     -0.18897237303931
  C   0.93270347995125      0.19116696535736     -0.27691645036983
  C   0.42712240272569     -1.15787270026307     -0.76297329596829
  O   -0.98328060034489     -1.22194701832402     -0.83331428628343
  C   3.08258452547068      1.06087299089359     -1.35806680425608
  N   2.58462327249708      0.50705140097287     -2.60259949357210
  C   4.64016127373541      1.10136854538749     -1.24069469560537
  N   4.93825150396161      2.37039392626073     -0.57713114506640
  C   3.91247855071062      3.24716227169101     -0.74539919855654
  C   3.83103414593324      4.57771982096561     -0.52773679788853
  Cl  5.18258351404155      5.46913041309669      0.04857040983884
  C   2.59217320897399      5.27716801779573     -0.82639772397886
  N   2.30556424765606      6.51345417748348     -0.71064545403700
  N   1.60102577308873      4.43203126741077     -1.33187310265472
  N   1.65591450720329      3.11866912635739     -1.53683775710012
  C   2.76031056490248      2.53873925873680     -1.24566525081728
  H   2.51212626255162      0.09066802981429      1.95714069027165
  H   2.55314347704491      1.75190167814459      1.37062197878971
  H   4.00637058209218      0.75177177648738      1.29351687736445
  H   2.85880386311105     -0.77290880499860     -0.32001931533048
  H   0.55669422692959      0.96492061154441     -0.94602315659986
  H   0.50731475727672      0.38240434159058      0.71401647139359
  H   0.81769367658271     -1.95625200397063     -0.11768749830787
  H   0.78545890939150     -1.33953013128519     -1.77638328294855
  H   -1.34743482785832     -1.00073469794674      0.02883153378367
  H   2.92137888547329     -0.43897033124266     -2.74421110731217
  H   2.85681153259325      1.06962244795626     -3.39972044212553
  H   5.07824379170502      1.06766869350428     -2.24283269740078
  H   5.02406505204832      0.25916190602791     -0.66322644534238
  H   5.88245573650660      2.71272537504060     -0.49374523816268
  H   3.09231836556456      7.03739055898305     -0.34185021800331
  H   0.72877875995792      4.87685403965148     -1.57432003182557
