25
Coordinates from ORCA-job 2395optt
  Br  1.07377909316635      0.02000299718641      0.30327273850984
  C   2.93048475506974     -0.03457656931674      0.00934382866512
  C   3.62634667676154     -1.18422673307898     -0.01432822607508
  C   3.23424802153397     -2.61256197912322      0.22669891571464
  C   4.30352981490877     -3.35501797232730     -0.57303110175215
  C   5.53274088361922     -2.51647715830067     -0.18249726448979
  C   6.67317353025737     -2.71651329956966     -1.06104535699680
  C   7.58456982439689     -2.91044510956077     -1.80849834258298
  N   4.97566423951883     -1.15203388891236     -0.23950892894810
  C   5.72451879626684      0.05037446877942     -0.15999456351520
  N   6.96501181637587      0.13370162178238      0.05543416149364
  N   4.95797968255351      1.20267483471635     -0.36735967810994
  C   3.68145995682334      1.16334505344572     -0.26486437838795
  C   5.87035521291235     -2.80109561230490      1.30001255317970
  O   6.97548501923150     -2.92990108733717      1.71722489853663
  O   4.81115409029847     -2.82652698081172      2.13093298790058
  C   3.44535977298957     -2.94453974863477      1.70174248780521
  H   2.20584805639832     -2.82684993522856     -0.05584871821618
  H   4.14501352293896     -3.28407338789314     -1.64745101919732
  H   4.41616068338386     -4.39965095107061     -0.28539380966396
  H   8.40230430251507     -3.07083852932327     -2.47083589434259
  H   7.41213636223605     -0.76239675105913      0.22835652701370
  H   3.13613874174974      2.09367692505259     -0.40558653488268
  H   2.87008735576127     -2.27891884869394      2.34341801106798
  H   3.13844978833247     -3.97513135841593      1.89080670727369
