32
Coordinates from ORCA-job 23950optt
  C   2.83882647457034      1.16808557054448      0.42047904712702
  C   2.70991452316901      0.66171638074480     -1.01015203632546
  N   3.01267938934458     -0.76100434550048     -1.13312886982168
  C   2.02119232827996     -1.71087138385530     -0.67419214834966
  C   4.31658739708486     -1.12371215567415     -1.18605194600588
  N   5.29983010092922     -0.29302576986124     -1.32492979350926
  C   6.49576988898458     -0.96917359124151     -1.38491093717192
  C   6.41470023866415     -2.36329702171661     -1.27462724012660
  S   4.75860815451350     -2.83518238830381     -1.08210492868578
  C   7.54902560415977     -3.15778414187278     -1.31066905108079
  Cl  7.40859174619713     -4.87788398132035     -1.16720663910453
  C   8.78069085428554     -2.55285679890263     -1.45364456842460
  C   8.89729603325646     -1.16299215651181     -1.56429294250319
  C   10.25142128016807     -0.53262483872907     -1.76678329792901
  C   10.49530203866064     -0.13218420986833     -3.22501637853479
  C   7.75291566798558     -0.37008618966380     -1.52908127090497
  O   7.78217414088733      0.98374991349282     -1.62758045221350
  H   2.58980277826333      2.22844226005713      0.47117161809769
  H   3.86292325175718      1.03765179998617      0.76980819991892
  H   2.16593175801666      0.63021563401917      1.09074932357621
  H   3.39392720667027      1.19949388507246     -1.66312200820518
  H   1.69517573282079      0.80573258577413     -1.38475708342454
  H   1.03295122178291     -1.28171156432419     -0.82873923679666
  H   2.13535090261598     -1.95659407598812      0.38704608637591
  H   2.08047882647192     -2.63358083793234     -1.25369831938046
  H   9.67192041961892     -3.16682755197932     -1.47747368685040
  H   11.01951637779582     -1.23864689542316     -1.45004498610505
  H   10.36948749770424      0.33788966047774     -1.11147902686316
  H   10.46744030462549     -1.01513499559703     -3.86387249211673
  H   11.46615247171835      0.34948028295642     -3.34460731295603
  H   9.72548088284130      0.55241259874870     -3.58582362472518
  H   8.69293450615606      1.28830432239204     -1.68226399698075
