31
Coordinates from ORCA-job 23968optt
  C   3.32508613250505      0.28580645032789      1.43723322861359
  C   2.44756066574662      0.03915590094206      0.20751377136735
  C   2.89860429992360     -1.16780557944590     -0.55790564551427
  C   3.76080389484656     -1.15517857740192     -1.59343535034899
  Cl  4.43767967954188      0.34447269472044     -2.14043340108562
  C   4.18137253404480     -2.35833587370545     -2.27772087580651
  C   3.67724384178848     -3.51132319360060     -1.81681595746976
  O   2.81795836515327     -3.58652426139718     -0.77716501319477
  C   2.40357851304705     -2.46466344384947     -0.09055843989754
  N   1.63290331744034     -2.58078556539012      0.90447262372797
  C   4.08462766564934     -4.82404460429192     -2.34982629471909
  C   3.40873194277207     -5.44241791085279     -3.52092560836482
  C   3.29217980648027     -6.93257412845723     -3.66048579782642
  N   4.72866663047051     -4.85205162310635     -3.65325046259621
  C   4.81802503045418     -3.56397715277032     -4.35823752307811
  C   5.15481264821253     -2.40650285643154     -3.42637564234886
  H   2.96393818792550      1.14905228451864      1.99631019228532
  H   4.35779669497030      0.47737448252153      1.14180212158294
  H   3.30403853569415     -0.58275776686647      2.09502154558112
  H   2.46542015839040      0.91112765354857     -0.44498237513628
  H   1.41992799556142     -0.13028923109612      0.52686565056033
  H   1.40679009224258     -3.55732484521930      1.07939775229387
  H   4.52124548790764     -5.48778861953164     -1.60816006721317
  H   2.59233086546161     -4.85747460670820     -3.93768105906691
  H   4.14831466852727     -7.41844686881680     -3.19362776276071
  H   3.27007033047573     -7.21888887391181     -4.71279860882186
  H   2.37952400898572     -7.29484836159786     -3.18561586670053
  H   3.87128796559480     -3.33662834508032     -4.85892492690702
  H   5.58404395835205     -3.66494599613939     -5.12741559829920
  H   5.11538040661777     -1.47657968454216     -3.99241673139923
  H   6.17705567521646     -2.50383149636826     -3.04985787745656
