27
Coordinates from ORCA-job 23973optt
  C   2.14832477942440     -0.23364828099378      1.52147611092242
  C   3.39012356787290     -0.06504308842870      0.67449029674473
  C   3.28153321649819      1.01020440403135     -0.47614468519384
  C   4.48706539202699      0.68799553355692     -1.40934810032181
  N   4.43972803886914     -0.80721720066025     -1.45866132606528
  C   5.24900320916862     -1.25346517913424     -0.33574217660091
  C   3.79197075602522     -1.26896526522916     -0.19793068764434
  C   5.61304697278563      0.01770129347284      0.35918113933222
  C   5.74808645699092      1.10407836503027     -0.55074678239893
  C   5.89803309100294      2.36737103604877     -0.02627306094108
  C   5.98339690969622      3.61416655229615     -0.85715659485059
  O   5.03670251293014      4.58629370670335     -0.47292708790853
  N   5.72572788478653      2.57847154920620      1.31485298728866
  C   4.99670532721948      1.67526783858646      1.90777617110375
  Cl  4.20222725092762      2.11093327581362      3.38331241027987
  C   4.73432428691185      0.37909925561682      1.35512988852861
  H   1.29324731076627     -0.49444096275759      0.89552423147688
  H   1.91682017441622      0.68876346781803      2.05308541111221
  H   2.29392787095893     -1.02224004847600      2.25982129343296
  H   3.26252696553001      2.04511495387413     -0.12682760150882
  H   2.35928230914649      0.80623629507235     -1.02728280046085
  H   4.40930310697357      1.12018962855243     -2.40295997679384
  H   5.92048618644202     -2.09466136760976     -0.43916928712767
  H   3.16176446966513     -2.14488969298791     -0.26110061121516
  H   5.79649418283788      3.36357923082473     -1.90238567007304
  H   7.00161847415506      4.01785788577946     -0.79153456031071
  H   5.08052929597157      4.65924681399350      0.48854106919308
