28
Coordinates from ORCA-job 23978optt
  C   1.27569338208404      0.77054334397296      0.01538134192046
  C   2.59270828258444      0.00919090972423     -0.01188386276780
  O   3.65355087991001      0.72993797362006      0.57369487784273
  C   2.43932496100773     -1.29748433412612      0.67207995342214
  N   2.33082311461666     -2.29659834727029      1.22237483494199
  C   3.01737240206955     -0.30973613290350     -1.47482930299462
  O   2.17440775091093     -0.45248984290048     -2.31424231203209
  C   4.49410132583099     -0.43843580533454     -1.72864188986305
  C   4.80679142130258     -0.92730455457635     -3.13917954376786
  C   6.29254982898282     -0.93735609458679     -3.38222452966206
  C   7.07360109082581     -2.02865662869945     -3.01248862659920
  C   8.44972361672115     -2.00368986513253     -3.18692169705708
  C   9.07190260167626     -0.88975492906178     -3.73236305135401
  C   8.28983276244710      0.19350282712214     -4.10023077678447
  Cl  9.04346136536575      1.59494465796527     -4.79081305157441
  C   6.91467496102853      0.17920522407303     -3.93211307378350
  H   0.96487619572182      0.93911321410433      1.04671685626242
  H   0.50473799749014      0.20728515844770     -0.50518377540646
  H   1.41757399691016      1.72810668735655     -0.48362996939683
  H   3.43875280899738      0.92461628982108      1.49266974670812
  H   4.91843027327920     -1.09930375985655     -0.96587570036069
  H   4.95013258788950      0.53768826544152     -1.53865411757425
  H   4.30987562733985     -0.27798615077518     -3.86058462403607
  H   4.39004550189600     -1.92635625688451     -3.27702531249166
  H   6.59867574335095     -2.90533998585465     -2.58769761004640
  H   9.04684719411341     -2.85943555648968     -2.89942348652976
  H   10.14296508757311     -0.85760423903937     -3.87526921989297
  H   6.33056723807402      1.04039793184294     -4.23264207712257
