27
Coordinates from ORCA-job 23991optt
  C   1.06580969442987     -0.00049264963510      0.01243345909322
  C   2.56786363354747      0.02800060737583      0.13029002101959
  C   3.24553747207093      1.26370325230553     -0.48597373775440
  N   4.62204729658693      1.22715581941521      0.06518690924720
  C   4.62752796007592      0.04932009284904      0.94311746121719
  C   4.58118934509260     -1.18117652321830      0.01856243096488
  N   3.20008672878664     -1.13701365297793     -0.52124868910579
  C   3.19982203653950      0.02677643950853      1.53256401871269
  C   5.73368629103265      0.08249885076158      1.94828895990481
  N   6.18759980109928      1.28803086513749      2.32784306358504
  C   7.11538699744652      1.27677215242204      3.23928200744936
  Cl  7.75298066336988      2.77829193237016      3.79073016994712
  C   7.59388677527112      0.07994064922338      3.77840269684267
  N   7.09696048026728     -1.06739958993133      3.36610233646915
  N   6.15860486829150     -1.07459465857338      2.43939139950792
  H   0.77165329467656      0.01684739961902     -1.03814637050245
  H   0.62228998686081      0.86113461881760      0.51239377513038
  H   0.65713741767583     -0.90597695679270      0.46605026280990
  H   2.72508140032011      2.17958338881250     -0.19666009283961
  H   3.25152209259419      1.18380083759274     -1.57316633648473
  H   4.81626775134525      2.05497995564172      0.61492589102535
  H   4.77396151861717     -2.09881608464933      0.57096546464566
  H   5.32181019202416     -1.06923770406903     -0.77274272151742
  H   2.70111499541028     -1.97507425969093     -0.24528351543685
  H   2.98782928815422      0.91901838081771      2.12447973789086
  H   2.97341617314018     -0.87657751057404      2.10086697423229
  H   8.36592584527307      0.05150434744198      4.53434442394596
