26
Coordinates from ORCA-job 23990optt
  Cl  1.13397298352518      0.15242302560868     -0.05620328066329
  C   2.85504279266835      0.01702746241233     -0.13469035214307
  C   3.45905285766134     -1.21245863479874     -0.11233217915343
  N   2.86180497849796     -2.44037282376042     -0.14160225067561
  C   1.66839280687463     -2.76512669711046     -0.86277420496655
  C   1.59758446150574     -2.37987794923162     -2.30262634805909
  C   1.77573889019457     -3.81895821701905     -1.92404423366458
  N   4.84268873816713     -1.21537663070119     -0.05798956167610
  C   5.71055127476769     -2.27479730648400     -0.03148289640785
  C   6.96087905681561     -1.70897217369142      0.03585859421034
  C   8.24210517513296     -2.42835444683786      0.08735847889032
  O   8.32962162281112     -3.62915363230565      0.08862676940372
  N   6.90480426699930     -0.35154845477870      0.04352987218986
  C   5.62266720239721     -0.05521639619683     -0.01547875925628
  C   4.96940830621053      1.19578915644300     -0.07673888850471
  C   3.61420384083099      1.21740784886970     -0.14487477131575
  H   3.35796491903291     -3.19933568128831      0.29371227144177
  H   0.74624599764498     -2.72583197514705     -0.29759176999698
  H   2.45480197822317     -1.86077879486894     -2.70901203693022
  H   0.64068934915014     -2.05318703529763     -2.68177766224220
  H   2.75084372988724     -4.25725702575446     -2.08480787988939
  H   0.94085778703255     -4.49384225617978     -2.04383939067243
  H   5.41680459760410     -3.30671581670820     -0.07938269502462
  H   9.13218203818609     -1.77701880264493      0.12276464115185
  H   5.56875715582143      2.09353911510708     -0.07101428879427
  H   3.07333319235699      2.15299414236448     -0.18258717725142
