23
Coordinates from ORCA-job 23999optt
  C   1.12300930295125      0.35958851935784     -1.13850137429168
  C   2.50113165621799      0.04156108794427     -1.65450541202918
  N   2.85122983836488     -0.09219571089193     -2.86381375821260
  N   3.43452371029835     -0.09723249459071     -0.63150545937536
  C   4.76713493814821     -0.47768861411915     -0.80432362436684
  C   5.28217819962585     -1.52276265377401     -0.05095155722507
  Cl  4.30080958546709     -2.43460793858639      1.02888428285936
  C   6.64156193964674     -1.82110457285246     -0.17189016728635
  C   7.49567983182106     -1.12888258565613     -1.00148328949443
  N   8.74054991733875     -1.70623852352884     -0.83990844852922
  N   8.67498873622652     -2.63527554713794     -0.02450365790286
  O   7.34060340092398     -2.76607691952829      0.44932002669699
  C   7.01688754545370     -0.05225901135057     -1.76424324444948
  C   5.64975970609847      0.23941303968442     -1.65199068662763
  S   5.30928899827421      1.63230115381357     -2.60485485235318
  C   6.97579272951597      1.70290899439626     -3.04009571486812
  N   7.74682244525250      0.78309308174656     -2.56645931989775
  H   0.42157912993829      0.45177365908360     -1.96342995442006
  H   1.13650200459658      1.29242998789686     -0.57341681304549
  H   0.77559520943559     -0.43246878561174     -0.47200224788444
  H   2.06761533265520      0.06930024296223     -3.48842864031061
  H   3.04679209234997     -0.34133332628678      0.26749279309083
  H   7.32596374939880      2.47975691702933     -3.70638888007681
