25
Coordinates from ORCA-job 24008optt
  Cl  1.13926243418587      0.31392560492961     -0.33243111056727
  C   2.83740841742418      0.09670990115830     -0.19767029081861
  C   3.66095541248693      1.16760361136408     -0.15477236841199
  C   3.07791451180668      2.52334472920722     -0.25055559233931
  N   3.05581445138568      3.42810996867245      0.66669551691485
  C   2.39234051790856      4.49719394185030      0.08253521041625
  C   2.06934365386526      4.16547979279306     -1.18161267445633
  O   2.50829862407678      2.90119217951433     -1.40723936306235
  C   5.10469321019282      1.07860306996796      0.00682674919364
  C   5.91843824400631      2.34368725167340     -0.00323206453358
  O   5.79042077523463      2.96596534423672     -1.27892325048314
  C   5.44296277993391      4.27419359220781     -1.32434179445479
  N   5.24122500711174      4.91131260025940     -2.38345732214337
  C   5.73048412810552     -0.09875635234308      0.12897497743105
  S   4.97819114503228     -1.64319523033339      0.12803542292060
  C   3.25560536098987     -1.31425281639918     -0.11459643653998
  N   2.41301048316640     -2.25474683427590     -0.19924137252533
  H   2.20835211640583      5.41526647051993      0.61197358816708
  H   1.58654568424245      4.66918145327136     -1.99833566901819
  H   6.96932699237276      2.10429468570958      0.16192367360886
  H   5.58208235138938      3.02633176078938      0.77947872035991
  H   5.33834489939071      4.74991742039634     -0.34921594618801
  H   5.37230128391206      4.31316012609395     -3.20017247566517
  H   6.80720689575097     -0.15301258394864      0.23224638942967
  H   2.83747061962237     -3.17750968731507     -0.12689251723449
