27
Coordinates from ORCA-job 24013optt
  C   1.09254084308162      0.28933491564278      0.13289307340809
  C   2.59104615646523      0.11788918397234      0.06991400584189
  O   3.15758244588212      1.41553702779529     -0.06898698916707
  C   4.47803641079844      1.55288408839128     -0.20124317060695
  C   5.34106580901976      0.51009531908643     -0.14796996215519
  C   6.78103927073158      0.61130100730391     -0.22943092447121
  S   7.54389791293687      2.21273798617441     -0.03856659556671
  C   6.21030564499928      3.28109605230669     -0.21013408722379
  C   4.89087111871483      2.94286493616258     -0.35848376524119
  C   4.05755341383954      4.07829347114394     -0.70201426723922
  Cl  2.49025194408975      3.83995682831158     -1.39193706278473
  N   4.43046379336594      5.29483905048719     -0.61494308855058
  C   5.69615381031161      5.57990978580393     -0.14450317845078
  N   6.13203269717649      6.67288433470880      0.28169548452300
  O   6.62845451811474      4.54177867714162     -0.20983454864831
  N   7.63547740609055     -0.31522140497493     -0.34018426790175
  C   7.17108906388258     -1.68447191164233     -0.44050251000820
  H   0.61428906744091     -0.68333921471191      0.24562059053147
  H   0.72516595128578      0.75607409813141     -0.78016525196670
  H   0.81528522338790      0.91552292520151      0.97991375227084
  H   2.88586371342523     -0.49508919052299     -0.78684028715376
  H   2.98061252941881     -0.34610170410007      0.98076595355070
  H   4.95362907098300     -0.48792749135169     -0.01603653947810
  H   5.39247362353097      7.36860527487839      0.23565081016505
  H   8.02116940299099     -2.32969997213674     -0.64747932185252
  H   6.43614578121790     -1.81203921027403     -1.24206673414756
  H   6.71250337681754     -2.01771486292941      0.49686888232331
