32
Coordinates from ORCA-job 24011optt
  C   1.38147860809748     -0.02049039420511      0.33497013167366
  C   2.89043197538575      0.12779335816976      0.17004438754279
  C   3.27862755427626      1.35613936577295     -0.65111115427593
  C   2.85727198017212      1.17567301756924     -2.10658611974009
  N   3.24472388986819     -0.10735597830476     -2.67859328403747
  C   3.49632917894601     -1.06109742675440     -1.87968442378590
  N   3.47291328583305     -1.02274278198948     -0.50766785528168
  C   3.89496476389620     -2.39107540988574     -2.44816546396260
  C   5.16172727832336     -2.67480903948497     -2.81623079881948
  C   6.25504056968725     -1.65060307256929     -2.67530542843620
  C   5.47299318918500     -3.98170641385373     -3.35745226035100
  Cl  7.12944567460815     -4.20945007413656     -3.83652416323901
  C   4.64610475590024     -5.04399159664612     -3.53018761881296
  C   5.11747303992608     -6.35574403561689     -4.08743222801235
  C   3.22679741680866     -4.99221452402676     -3.17317090661741
  O   2.46085704309938     -5.91967425295254     -3.29002466979420
  S   2.55650150973175     -3.47195637845873     -2.54638954204978
  H   0.96238541420293      0.85677437407749      0.83065976769354
  H   1.14220383176088     -0.89962329193376      0.93456055637499
  H   0.89875533554926     -0.13557466717879     -0.63669171686415
  H   3.35482653462304      0.19596451985239      1.15586888553161
  H   4.36274839267474      1.47925260519353     -0.59985903040292
  H   2.82096417379151      2.25077416155260     -0.22719826164909
  H   3.29423214313641      1.96120021168048     -2.72440913719323
  H   1.77265223492762      1.27995737921614     -2.20903443321198
  H   3.49752082619576     -1.90601632215471     -0.02396457518249
  H   5.87242756024085     -0.73665945565293     -2.23075207504423
  H   6.67706052993871     -1.40640777008829     -3.65098232716498
  H   7.06696220337463     -2.03595073349694     -2.05762575793165
  H   5.53948678751397     -6.21999277287544     -5.08423721203288
  H   4.28491222196525     -7.05058303009189     -4.13931009405547
  H   5.90318009635934     -6.77880957072664     -3.45951319086735
