31
Coordinates from ORCA-job 24014optt
  C   2.21741861442243      0.93703079920076     -2.60130638987942
  C   2.46045814225743      0.47139043074304     -1.16508440963465
  C   1.21356829510093      0.74451986053472     -0.32588868505425
  C   2.82588164049773     -1.02018168605061     -1.08387485265416
  C   4.32315394265659     -1.35809235243938     -1.18926443842473
  C   5.16036481332265     -0.67552760380465     -0.09503483412155
  O   5.80335573988260      0.45634784314028     -0.71041103858858
  C   5.74790335030860      0.25206300976662     -2.03922828968760
  C   4.99329556852931     -0.79598263368328     -2.42981550669840
  C   4.79298468471466     -1.21165925246943     -3.80032111248221
  C   4.00544145986436     -2.42793398547056     -4.11497376897912
  O   3.56595280269362     -3.18054795282942     -3.28395140834500
  C   5.35100357422092     -0.50078685093025     -4.81093981191466
  Cl  5.19008950001026     -0.90335586574273     -6.48387399873659
  S   6.31862134180736      0.91722378423231     -4.63480447346157
  C   6.45910637504449      1.20165802761980     -2.88022515592465
  N   7.11300834984404      2.17650426982443     -2.41223480142192
  H   1.94457534256757      1.99358779339308     -2.62047544477758
  H   1.39221732165760      0.37143171957071     -3.04271014111763
  H   3.09160012278872      0.80988835651338     -3.23911489664701
  H   3.28333125138039      1.06241136081911     -0.74775380626556
  H   0.37680304574685      0.13710130278185     -0.68156269796822
  H   0.91711757267504      1.79260826546953     -0.38846479664796
  H   1.38141727813582      0.50025908290769      0.72447987527126
  H   2.27407756673723     -1.57727976602718     -1.84493264551057
  H   2.49461023511146     -1.41580041594729     -0.11885085219857
  H   4.43191818893188     -2.43851246373220     -1.13479208822035
  H   5.94584165161866     -1.33182242233758      0.28399263160571
  H   4.56238543282913     -0.30621624982340      0.73703873596081
  H   3.83964056118247     -2.62133019026110     -5.18387526180387
  H   7.54185623345914      2.76000378503176     -3.12874563567140
