29
Coordinates from ORCA-job 24024optt
  C   0.95863589199856      0.28473398807202     -0.13863136393275
  C   2.46921708560379      0.06938452672902     -0.02103446815672
  C   2.90332511840655     -1.18464931976161     -0.74483422155395
  C   2.61704042498012     -2.45203791083093     -0.33581905467025
  C   2.02591285171227     -2.81453872829621      0.95333385498871
  N   2.00547285678299     -1.96965164402670      2.11359421755941
  C   1.49846104593088     -4.03805928127831      1.20796925758693
  O   0.97277089725333     -4.36035712975646      2.39360876165572
  S   1.50593413185522     -5.34994301388113      0.08478488465826
  N   2.45503025790299     -4.78743037720591     -1.11597359020523
  C   2.90403215714869     -3.59197365825147     -1.23824795628749
  C   3.75205394301548     -3.34218715743253     -2.41538499011311
  Cl  4.24753720648717     -4.74071350521755     -3.29900438516535
  C   4.09681922790091     -2.10885251111204     -2.80446946411354
  C   4.95168132898062     -1.82165650834349     -3.99903380444359
  C   3.55721821642688     -0.95295063203561     -2.04737975343354
  N   3.63734355061772      0.24552955927965     -2.49271307615345
  H   0.63997705282810      1.16256953827154      0.42557740524624
  H   0.39279886348753     -0.58136561667655      0.21516398431388
  H   0.69042763180653      0.43751959570536     -1.18458628827311
  H   2.77932011513233      0.05942229650404      1.02065547289574
  H   2.97499639036644      0.91138478225515     -0.48449739303164
  H   2.93779497249219     -1.65641240523392      2.35711709019120
  H   1.42495637725587     -1.14908012285684      1.98910336301476
  H   1.10230827842841     -3.56160501342653      2.94364758240208
  H   5.43340409195628     -2.72084797079053     -4.36808674245820
  H   5.72032411919701     -1.08925587578819     -3.74607944270976
  H   4.35031883395608     -1.40367309344897     -4.81082353655472
  H   4.10088708008903      0.28269718883473     -3.39595634325655
