27
Coordinates from ORCA-job 24026optt
  C   1.07130364405114      0.43527327135061      0.57439693355179
  C   2.40648968816692      0.23383738349696     -0.10080849353679
  C   3.04396712458284      1.30993727187922     -0.58486119914878
  S   4.65528020403310      1.38838573974560     -1.18319725162719
  C   5.24724342439497     -0.14530643632592     -0.63440925947812
  Cl  6.96992940349088     -0.22653994032079     -0.77915993081164
  C   4.52123720130698     -1.16520643909629     -0.15286130032692
  C   5.17092434846526     -2.44298253058876      0.31502034717173
  C   5.51973760861675     -3.40685433494653     -0.82264745244980
  O   4.42339513980609     -3.73959391422020     -1.63632240856893
  C   3.03748716687936     -1.10557177390085     -0.14725885951789
  N   2.44486459960834     -2.23850305840651     -0.16338006333054
  C   1.00642690414569     -2.38284526457188     -0.30088860271714
  C   0.67275699045958     -3.76776016555931     -0.64274392764350
  C   0.39637806448473     -4.89679998291591     -0.92662027269542
  H   0.92884505220018      1.49156230986927      0.79592927746354
  H   1.03854799917685     -0.11019239360709      1.51853647035356
  H   0.22765352664102      0.10400028965135     -0.02927011264250
  H   2.55708481272855      2.27836236984502     -0.58913563577813
  H   4.48763795576305     -2.93854527492095      1.00418579287396
  H   6.08964077325314     -2.20913020207063      0.85482937439860
  H   5.95297297512749     -4.30906898297794     -0.37479483672529
  H   6.28110658287189     -2.95686748254561     -1.46349975408794
  H   3.60712456640279     -3.57222592109069     -1.14023228535098
  H   0.61336632059836     -1.73034306688310     -1.08680117605951
  H   0.48521001155207     -2.12577139359714      0.62513774029797
  H   0.15938791119193     -5.90225007729189     -1.18014311361413
