27
Coordinates from ORCA-job 24032optt
  C   5.09123095238906      1.05951056340063      3.35091793171804
  C   5.89357620051929      1.63369628120154      2.21366768003359
  C   5.40198658570177      1.63037330982658      0.96953105370374
  N   6.02223670242487      2.17129072539531     -0.18059254005195
  C   5.57628280400800      3.57831494486820     -0.30195390517680
  O   4.79996817609814      3.94866420651110     -1.12401223120794
  N   6.25580961585853      4.26980399214186      0.67696421580421
  C   5.76665578197701      4.41577250094487      1.84638243927519
  C   4.30871977756008      4.50582526334061      2.18823765193629
  N   6.66751299379975      4.57063994546705      2.89290688741243
  C   7.41743881822257      3.56342014237201      3.13492231677012
  C   8.60693177968934      3.71386638591108      3.96961338333321
  Cl  8.87040812952795      5.19271412260934      4.79321898990521
  C   9.53975238445178      2.75551552160125      4.01757107669036
  O   9.41054515528770      1.57068324574431      3.39161619997731
  C   8.23288888998303      1.29677131979991      2.79779894865860
  C   7.22818860904146      2.17176536409550      2.64210006818598
  H   5.59696883496012      0.19952505330159      3.79644644488699
  H   4.10202685759072      0.74779696421057      3.01767280919948
  H   4.97439829440534      1.80328778442687      4.14471067660091
  H   4.39448327702392      1.26231358633251      0.80336604061074
  H   7.02263633667252      2.22130650815119     -0.00467265179855
  H   3.68886728900030      4.25615567072077      1.32926017836105
  H   4.09597294514070      5.53424461859319      2.48662537068225
  H   4.06949535946216      3.86084271353901      3.03329627075816
  H   10.47749564923961      2.84946690526518      4.54366061933907
  H   8.18052179996418      0.26543236022792      2.47674407439228
