23
Coordinates from ORCA-job 24033optt
  C   4.55211886695169      0.97431081879941      1.10565765400045
  C   3.95428933272692      1.89074831198807      0.03462510464886
  O   2.71974930598702      1.30974965957631     -0.32759669832709
  C   1.98949255178256      1.82219348575060     -1.38434965688098
  N   0.95134859558375      1.21850789673101     -1.77355745862855
  N   2.49442051964925      3.01210242908615     -1.83682520866413
  C   2.26249084078131      3.46464679931733     -3.02272233908870
  C   1.55641928558867      2.83546065675674     -4.11443706492633
  N   1.44425583420680      3.38937908472863     -5.28553031313337
  N   1.98122880802322      4.56980818156305     -5.45247573457259
  N   2.64013064996441      5.28354446049733     -4.56422916728170
  C   2.78730952189428      4.76873015932861     -3.38964374582356
  Cl  3.63970717986502      5.67353816126424     -2.22519086035654
  C   3.78989544728343      3.24637161517699      0.61021543335096
  N   3.71289664064687      4.24765950598721      1.15879799092810
  C   4.89274620535159      1.95004045099975     -1.11186569543474
  N   5.66876587280209      1.91856978827923     -1.95268005264927
  H   3.86315159875324      0.92886429300053      1.94606628218443
  H   5.51145925874587      1.36667860131043      1.43637364787006
  H   4.68489775299869     -0.01742434181073      0.67872063029446
  H   0.78806520367661      0.38421504127296     -1.21512035292275
  H   1.09428739259544      1.87007103013214     -3.98342619856894
  H   1.87787333414120      4.98823391026395     -6.36380619601802
