26
Coordinates from ORCA-job 24039optt
  C   1.11201751139439     -0.08729832538927      0.35740960126309
  C   2.58067570276365      0.04424548114157      0.09709205249628
  C   3.22194808921665      1.26780111820970      0.07189194374401
  C   4.59211402339167      1.34718626800048     -0.17299236597539
  C   5.28324631161858      0.16319207306201     -0.38234538998937
  N   4.69441175461797     -1.02986330609866     -0.36171969194933
  C   3.40291158131119     -1.06924823894372     -0.13314931719773
  Cl  2.68152595998218     -2.64497105220146     -0.11928362572670
  C   5.25301953861720      2.68569555259597     -0.20419028956460
  O   4.61760874901525      3.69087492012929      0.00867793506578
  C   6.73177451620843      2.74453157208638     -0.51049006732777
  C   7.23965665991645      4.16699704429590     -0.56957991486740
  O   8.63071287346008      4.09271889678580     -0.86994831502727
  C   9.25659528968576      5.26640946330433     -1.10671157281754
  N   10.47963418358943      5.38203142651358     -1.35193388052728
  H   0.66239353227875      0.89329617340450      0.50077700194788
  H   0.92953047204475     -0.69289646209577      1.24615433136203
  H   0.61342989701697     -0.58553923994601     -0.47494541830091
  H   2.66894839966612      2.18402604910752      0.24075487743153
  H   6.34960081991042      0.15499788111619     -0.57528570221962
  H   6.92713664920186      2.24228792584070     -1.46168524110463
  H   7.27919786388196      2.18290803293746      0.25203901355645
  H   7.08557705070642      4.67417274466928      0.38489310613653
  H   6.71316139656301      4.72939945398087     -1.34391719991837
  H   8.60748085123564      6.14282060181578     -1.07711860640207
  H   10.94069032270513      4.47122394567753     -1.34239326408759
