20
Coordinates from ORCA-job 24048optt
  Cl  2.24052153509067     -0.98473312846158      3.43423328918176
  C   3.53897616770330     -0.47964992960969      2.46459917310581
  N   3.78562823102414      0.74978134115196      2.34244091058082
  O   4.90427305828295      1.07993508804599      1.57456308049084
  C   5.45498833907653      0.20042414299235      0.69811591073864
  O   6.29025152499271      0.55599337874737     -0.06013106476812
  C   4.95269007934674     -1.21389089380895      0.79415658701093
  O   4.20618819541575     -1.50792330999822      1.90620072553517
  N   5.25875361893150     -2.06809948815172     -0.06264335131119
  C   4.75290954448143     -3.35571073279925     -0.05937116873143
  C   5.50624936066705     -4.43134179816693     -0.31142230657137
  S   4.63528910163505     -5.92487224423892     -0.15246310366196
  C   3.14281543259844     -5.06017219517721      0.25268534272855
  N   2.00914189696936     -5.52954958055561      0.53355192847829
  N   3.39506467975450     -3.66980478576510      0.20205997805564
  C   2.31004122434006     -2.79591966191556      0.10213586068673
  O   2.40470035952260     -1.61407634180692     -0.08220059937358
  H   6.55797830286085     -4.40335636877147     -0.54099923277039
  H   1.97710100615222     -6.54230388466625      0.49030138049426
  H   1.36343834115410     -3.33472960704424      0.20818666010059
