27
Coordinates from ORCA-job 24047optt
  C   1.84713702594453      0.24073315744229      0.58289699233586
  C   2.41224202649494     -0.77367766708023     -0.40248457872691
  N   2.95740178613535     -0.11398950243663     -1.59739240296563
  C   2.08600000815879      0.86109949329611     -2.23597381979798
  C   4.25233059777553     -0.21473544163451     -1.93942643529573
  C   5.07013666478325     -1.30351817643698     -1.73108746866777
  C   4.67269524484697     -2.68790351416179     -1.40513760361886
  O   3.57591882385311     -3.19192930882355     -1.24406155814914
  N   5.86872417908066     -3.38210962955086     -1.36849567679854
  C   6.94598453485970     -2.57734744137959     -1.73446567356423
  C   8.26524936404329     -3.06764226075197     -1.84911084174334
  N   9.34151129177326     -3.46241856425638     -1.94629680285832
  C   6.49359053613940     -1.31510030281669     -1.97608521000213
  C   7.23214718346018     -0.20193053649884     -2.48637699550598
  C   6.60580031721585      0.91680303069399     -2.85316694345803
  Cl  7.43429636645492      2.25265137062456     -3.55306305056097
  S   4.89604116488166      1.25034503999615     -2.70208848415259
  H   1.53023080079739     -0.28443564600540      1.48371318187695
  H   0.98045286780974      0.76962369683017      0.18742367391108
  H   2.60389345437437      0.97474804198985      0.86345855749630
  H   1.65893453544312     -1.50036000031775     -0.70766877523310
  H   3.21382387948229     -1.33205679479658      0.06513090951159
  H   1.05979386306074      0.51097634563511     -2.13907759136088
  H   2.31902916142707      0.93739585145316     -3.29646886686584
  H   2.16317455348961      1.85106818801140     -1.77738740997648
  H   5.90601539030104     -4.37882963422914     -1.23380940763083
  H   8.30244437791315     -0.28645979479587     -2.62949771819845
