24
Coordinates from ORCA-job 24051optt
  C   0.66481538353981      0.08261167126281     -0.15691376555441
  C   2.14558855403780     -0.02986355213177     -0.12287498853092
  C   3.14328857244680      0.91071646011618     -0.12873132512077
  N   3.01667341168406      2.29389978309161     -0.19279432029369
  N   4.40373261610398      0.33773164315732     -0.12708946476376
  C   4.18491740471684     -0.93994036700175     -0.11658547358495
  C   4.97285846219440     -2.21689999482011     -0.10129848160331
  C   3.85265436580475     -3.22489890279648     -0.07691724995918
  C   2.63807410124303     -2.59473028616651     -0.08127419901158
  C   1.39892464743494     -3.28908068249830     -0.06052582671006
  C   1.51782606264445     -4.63188859021971     -0.03825104661363
  Cl  0.15938980462125     -5.67142672167519     -0.01126931290533
  O   2.66392163534488     -5.28628186853060     -0.03553106129814
  C   3.94296793413185     -4.64341868494360     -0.05276829049294
  O   4.89791337376993     -5.35692628013966     -0.04470400523736
  N   2.84345729815270     -1.23076329830853     -0.10802121639679
  H   0.38602405228472      1.12847360878331     -0.27934541591011
  H   0.19537588836304     -0.28444642626581      0.75932351643787
  H   0.23820345836576     -0.46437446237640     -1.00111569424960
  H   2.26967866416528      2.67395012053180      0.36883959160133
  H   3.89344085732326      2.75369769032956      0.00599943105952
  H   5.62015106901629     -2.29081262969837      0.77478386291031
  H   5.60646273979790     -2.31878424666890     -0.98455054597731
  H   0.43665964281222     -2.80654398303087     -0.06038471779520
