30
Coordinates from ORCA-job 24052optt
  C   0.92646851488627      0.37433144548665     -0.10450624451871
  C   2.43679862506903      0.20179450297947      0.00912172364546
  C   2.82080757927252      0.24714261692124      1.47995173847090
  C   3.24380844348063      1.08473895159214     -0.99697320342934
  C   2.92011347191687      0.03424638382250     -2.08753948386921
  C   3.07161088820619     -0.92106103526061     -0.87168358831378
  N   4.50993411249615     -0.78693821890278     -0.52907500679278
  C   4.68304000616366      0.68892692135664     -0.66522915165889
  C   2.57692548731946     -2.33151230983910     -0.80648286914892
  N   1.82792958291549     -2.64960347898927      0.24935860280026
  C   1.36627768773149     -3.88732792260615      0.37920575841522
  C   1.61834161163321     -4.89335869107204     -0.54030468535475
  C   2.39778607205231     -4.58821042419010     -1.64207253918335
  C   2.87918236717593     -3.29787633142659     -1.76939681712130
  Cl  3.87240982235637     -2.91827392868139     -3.13965388279491
  H   0.64393631239720      1.31273627256137      0.37871745368383
  H   0.42006787884432     -0.43700959275063      0.41771186531852
  H   0.55260690896007      0.40732512243722     -1.12508624213898
  H   2.70382158745210      1.26540195247660      1.86110342240041
  H   3.84364045065166     -0.08031241306567      1.65019781618247
  H   2.16202337591085     -0.40682457130284      2.05154408751885
  H   3.02229471152821      2.14267585465010     -1.12339965955653
  H   3.65176503680511     -0.08439610586576     -2.88511356114834
  H   1.91969264309919      0.09963098188226     -2.49918348145991
  H   5.06566118638906     -1.27188256863131     -1.22506915996006
  H   5.37869736344155      0.94889838483838     -1.46473907125048
  H   5.04362057517736      1.12492748253932      0.26709234102256
  H   0.76544049008356     -4.08458922116855      1.25976647422848
  H   1.21852971069595     -5.88778718864680     -0.39803687789142
  H   2.63476749588819     -5.32881287114428     -2.39422575809530
