26
Coordinates from ORCA-job 2405optt
  Br  3.92205074331443      0.96676277097963      3.67232847912171
  C   4.05972088767522      0.52935270450927      1.85280592067338
  C   3.48526655883034      1.22725415213036      0.85234754105047
  C   2.66772345165090      2.43206232021300      1.03654316582871
  C   1.40566423204673      2.71355773698268      0.56024713414053
  C   0.38637886901033      1.87509367909696     -0.17120934097520
  C   0.81917715676799      0.56016098325400     -0.81468443189975
  C   1.79779390291336      0.71824860190598     -1.97751176944723
  N   3.08182630023452      1.32647291081861     -1.59055941579709
  C   3.68553780079009      0.68765753029368     -0.49625910134566
  C   4.37886254500549     -0.45191275212860     -0.66969317590224
  C   4.95273356951011     -1.17639579555362      0.44196352251695
  N   5.60123078634488     -2.25472122926069      0.47047322833775
  O   4.77236926353436     -0.57701361575976      1.69027342205062
  N   1.00402265637807      3.99234219764412      0.84527181487138
  N   1.85358846305544      4.69482644788120      1.47913374891395
  S   3.24199188399274      3.84534560216295      1.79245158492499
  H   -0.05719020824392      2.52455777694981     -0.93085993349205
  H   -0.41679632229420      1.67182042239208      0.54203406470433
  H   1.24485174309520     -0.11295914717110     -0.06582598249345
  H   -0.07845196225388      0.06525116737603     -1.19166046039090
  H   1.36639099317125      1.35047101760198     -2.75547092497627
  H   2.00275719678481     -0.25556688380816     -2.42365573087285
  H   2.94104569836262      2.30936859552864     -1.39422694737407
  H   4.53169523537720     -0.84778071264766     -1.66397038630599
  H   5.70475855494588     -2.63025648139140     -0.46728602586204
