29
Coordinates from ORCA-job 24062optt
  C   1.23948171042736      0.35562328913103      0.19050842134001
  C   2.65861473034367      0.03285643735079     -0.27454893075784
  C   3.16608339789119      1.12202634741094     -1.23532648619933
  C   4.38958899923876      1.11933769257149     -2.18231137295164
  C   5.56584318829269      0.16262857455534     -2.42703266317425
  C   5.21832440826424     -0.81276990627389     -3.60723500461215
  C   4.09685602177973     -1.65179667065493     -3.04616521896165
  C   3.13757503112028     -0.87518772542254     -2.40438054398921
  C   3.06258002164136      0.59697189606892     -2.62887316685075
  C   2.77090117051863     -1.22427694162029     -1.11567333550821
  C   2.90320603844151     -2.54470800405924     -0.67396146965877
  C   2.49335430328266     -2.91830375427543      0.63947575524435
  C   2.13776982649064     -3.20365173822373      1.74929043708005
  C   3.55474676743194     -3.43907991578211     -1.53809023939950
  Cl  3.70530761916751     -5.10113581584106     -1.09255339507247
  C   4.24014508829056     -2.98016942725530     -2.65689887441643
  H   1.22474298606729      1.26075397218317      0.79928917284759
  H   0.83976343323082     -0.46774809847161      0.78238721435969
  H   0.58837744695823      0.50838828047703     -0.67235035765112
  H   3.30226688130677     -0.09449031498810      0.60045371975873
  H   2.82038228995328      2.12535669292564     -1.01857921174340
  H   4.60580337533055      2.13781711106490     -2.48454114508261
  H   5.81653058272085     -0.43688138766552     -1.54974710065902
  H   6.44998013246243      0.74918802073077     -2.67893517634314
  H   6.07642676673936     -1.43101415448530     -3.87092355026051
  H   4.92903995330957     -0.22518795405950     -4.48017485469075
  H   2.48811895064782      1.02326682161204     -3.43998420935135
  H   1.82741312637640     -3.47320594028025      2.73018209117558
  H   4.95777575227384     -3.63260738672326     -3.13730050447190
