22
Coordinates from ORCA-job 24063optt
  C   3.67082407062034      0.29028810723044      0.94160328031985
  C   2.56279847476811      0.11497967722031     -0.08295411657809
  N   2.87779751220806     -0.96708376350832     -1.01581039579793
  N   3.40491098253103     -0.65896696800301     -2.18340795237319
  C   3.62900445665262     -1.83824663555023     -2.79018835334781
  C   4.17647440389807     -2.10696808513569     -4.05866078853708
  C   4.26454696473991     -3.42900020422994     -4.37979497500778
  Cl  4.91633008203807     -3.92947120180218     -5.89949203268021
  C   3.82392271782694     -4.44914027662367     -3.48303918065700
  N   3.31484473315047     -4.21591280614946     -2.30455655601310
  C   3.22239295590729     -2.91215985818627     -1.96563789716003
  C   2.73713439663309     -2.29811125085531     -0.80095557200495
  C   2.19383067483586     -2.92529243203136      0.39570481512773
  O   1.84643769933638     -2.33856269270872      1.39371329514089
  H   3.43394500110171      1.13232354016266      1.59125339480782
  H   4.61986548962561      0.48888776422919      0.44415318850160
  H   3.76188468716097     -0.60232605307426      1.55839999245977
  H   2.44708891365712      1.00021455761447     -0.70359790058699
  H   1.62016074344150     -0.12832077381988      0.40070099906360
  H   4.50595160863404     -1.32427522518835     -4.72803433337358
  H   3.91611002848468     -5.48278937688915     -3.79790107373857
  H   2.12674340274806     -4.02206604270124      0.31550216243505
