32
Coordinates from ORCA-job 24066optt
  C   2.99688084128517     -0.14171710376084     -3.92672679050357
  C   2.44501011355311      0.58939403969817     -2.70852272345592
  C   0.92085553445149      0.55515658881408     -2.69143824791216
  C   2.98865194414421     -0.01435773060366     -1.40458627607373
  C   4.47940936257900     -0.06772514237420     -1.36169710288530
  N   5.16637893430846     -1.13369440145759     -1.37561175847216
  C   6.57857343834967     -0.74902010273040     -1.43448162997726
  C   6.61342513382316      0.75937947730579     -1.13456390970558
  N   5.22027585612556      1.12716608376272     -1.42968371041439
  C   4.73502581686122      2.34222450707600     -0.91837528096638
  C   4.64094193713429      3.42763415244547     -1.71371509520791
  Cl  5.04566012676841      3.37910810530261     -3.37964567763132
  S   4.10878133915434      4.99930622848377     -1.21002851415539
  N   3.78184496570303      4.82222030972308      0.39160991652245
  C   3.92566594255907      3.73124068494958      1.03090042464229
  C   4.39475331846685      2.43121841742511      0.51247227921979
  N   4.51535542612724      1.39312137191826      1.24398694455054
  H   2.58328948966073      0.27461122319153     -4.84674223703620
  H   2.73688854672316     -1.20245150657099     -3.88404784939510
  H   4.08432803268487     -0.06749351355436     -3.97565241297157
  H   2.76472268684715      1.63494448105641     -2.76465388600368
  H   0.56646376847778     -0.47747831879177     -2.64286295193113
  H   0.50904962387181      1.00834462287468     -3.59425280948019
  H   0.51853606999010      1.08866057780998     -1.82815499321788
  H   2.63189964454330     -1.03966010085853     -1.29599975736932
  H   2.62209558477466      0.55861022929811     -0.54830471562076
  H   6.95722391237615     -0.96428461228364     -2.43749232431576
  H   7.16613550995567     -1.32961837287761     -0.72505237720615
  H   7.30375213538538      1.31764658510849     -1.76587483226172
  H   6.83391823537550      0.95780017425046     -0.08159149697772
  H   3.67607597314283      3.75755183713417      2.09185445235396
  H   4.24813075479657      1.58616120823510      2.20893534385927
