31
Coordinates from ORCA-job 24075optt
  C   4.04561214489955     -2.21311811330652     -1.36375594258214
  C   4.71536649261949     -1.02943845832871     -0.70067928769949
  C   6.23286033287407     -1.15117671130117     -0.69317395686685
  O   6.84980686515329     -0.05464585463435     -0.07653757914491
  O   4.39040804216827      0.14003549046873     -1.45793321676425
  C   4.24604982000181      1.34562120437694     -0.84875084255276
  N   3.75286930947337      1.60714547188872      0.27858166145010
  C   4.75992790488356      2.42750661474680     -1.75889039375574
  N   6.17263035813626      2.18302004838689     -2.00261658703809
  C   6.75067757576993      2.79930585632586     -2.94976037340714
  N   6.04657177930745      3.70015091921513     -3.76532057148985
  C   6.59324306749062      4.39676809367253     -4.67025850950942
  S   8.25593337838293      4.43962555798657     -5.15602605878534
  C   8.92663735992247      3.20680360663821     -4.12532082916986
  C   10.38629002370510      2.94604343337466     -4.35324683428113
  C   8.18180336113851      2.55950077677579     -3.21816443390197
  Cl  8.93560049468263      1.34276465997153     -2.26029677991990
  H   4.29517469329739     -3.13271553629443     -0.83333182202363
  H   4.38398237432484     -2.30345102272706     -2.39678571247146
  H   2.96308533240236     -2.09337065696241     -1.36484150140990
  H   4.36652566645178     -0.91619106680267      0.32863836679107
  H   6.57202898252186     -1.27137501471628     -1.73030376420639
  H   6.51640332526454     -2.04705389775382     -0.13544208401680
  H   6.80446718219083      0.70659681145277     -0.68096385722707
  H   3.44164691050904      0.77564057175831      0.77576328480408
  H   4.61075440233800      3.39344861296345     -1.27617808795084
  H   4.18960979149660      2.41844926193144     -2.69169587807396
  H   5.97394368390155      5.07345090426130     -5.25599893273539
  H   10.79340223048195      3.61314907123107     -5.11114112260771
  H   10.53623093051413      1.91464799635490     -4.67472620553848
  H   10.94045618369545      3.08486136904577     -3.42484214791466
