26
Coordinates from ORCA-job 24076optt
  Cl  0.82850821743593      0.05104735722343      0.23192884520381
  C   2.54988353679296     -0.00986050442804      0.08821904715326
  C   3.20510052418978     -1.18331714098374      0.02463490663564
  C   2.47301825352717     -2.50219745060525      0.08313553033797
  C   3.32492767769687     -3.62095531413778     -0.48039658578021
  O   4.59072271294696     -3.63262314369756      0.16027724607063
  C   5.39039985534809     -2.51946216202381     -0.15013177187611
  C   6.07521923614179     -2.66798109874427     -1.48204675828739
  N   7.38298406007231     -2.79223979149877     -1.56164763081297
  N   7.58738894368278     -2.89102764797594     -2.88383460752859
  C   6.42018679973357     -2.82591314500766     -3.54021610466906
  N   5.43749296498617     -2.67713759436536     -2.68515340701582
  C   4.65408494652862     -1.18212965580933     -0.06814998944591
  C   5.42059320538195     -0.07599903182845     -0.08761136766146
  C   4.96583447597225      1.29976466998717     -0.03123871526473
  N   5.67317940525236      2.35577680284622     -0.04248166499167
  S   3.22093866278876      1.58536211897910      0.06446795826050
  H   1.53673017709893     -2.43687743725648     -0.47134226650570
  H   2.21943133692635     -2.72866831422880      1.12289135787452
  H   3.44776337244578     -3.51093005706756     -1.56044758151913
  H   2.87552914244057     -4.59099977610250     -0.27586494611833
  H   6.18343649862981     -2.51212164140341      0.59800822209334
  H   8.51954457542028     -3.00027390925887     -3.24679702168464
  H   6.33789028040895     -2.88641021009433     -4.61327744109787
  H   6.49914933716029     -0.19305915190239     -0.15916228627840
  H   6.66406180099069      2.12723322938438     -0.10276296709167
