33
Coordinates from ORCA-job 24083optt
  C   4.03290773781426      1.70122483620353      1.78010466384941
  C   4.07233472381983      0.71923090592791      0.64866509723371
  C   3.33561059103182      0.87468598182841     -0.46967546055448
  Cl  2.28481386263844      2.22860773205322     -0.66317114666055
  C   3.38739167944196     -0.06691650534910     -1.58907289556917
  N   2.78936904414608     -0.03747826592155     -2.69698154480239
  O   4.22503477357514     -1.14185640974228     -1.39359707291527
  C   4.95497271108392     -1.32180752938119     -0.27935189133617
  C   5.72948895806908     -2.59861412506856     -0.29880508491930
  C   4.84256158931327     -3.80296657626938     -0.00902189825172
  C   3.85344002478016     -4.15298865028074     -1.09816004129927
  C   5.45468181336209     -4.91968165779815      0.79045779292748
  C   4.46690753221818     -3.98570232276443      1.43072100293985
  C   3.08487605857522     -4.41662294464072      1.83565667958543
  N   2.16148733591579     -3.29290858935198      1.67340097319626
  C   4.92257578276963     -0.43924263757660      0.73265837764686
  H   3.01372951705385      1.82208038976561      2.14979948636996
  H   4.36825473339279      2.68384912211331      1.44427269598508
  H   4.66987743956846      1.37430327461451      2.59928453317011
  H   2.19554526981820      0.78289698220579     -2.76231812223338
  H   6.51345216430520     -2.53067669375649      0.45658343008953
  H   6.20596065016018     -2.71196976751249     -1.27625632413832
  H   4.36544513002408     -4.21808041515168     -2.06041195942673
  H   3.06671027208729     -3.40463571613024     -1.18259046355979
  H   3.38436060355209     -5.11735241994668     -0.90737343982085
  H   6.49346402571194     -4.84793905406089      1.08434212731128
  H   5.11814320957756     -5.92359966197657      0.56409186547647
  H   4.89889230896328     -3.25043903182744      2.10532722479049
  H   3.11888034408908     -4.80930041440330      2.86006392961665
  H   2.74323479266949     -5.23212532672539      1.19616273110094
  H   2.49914297198687     -2.48238191437781      2.18045794244838
  H   1.24226828323059     -3.51477915720922      2.03591597517734
  H   5.53318406525411     -0.60581343748938      1.60782081657217
