27
Coordinates from ORCA-job 24084optt
  C   0.95851809558511     -0.05154082631828      0.04456597748558
  C   2.47300193239779      0.10741429634399      0.00831407338627
  C   3.16157779054949     -1.26378916869729     -0.00780422780311
  C   2.94592047412841      0.76775447438039     -1.29091808876541
  O   2.35335062169005      0.66726896117930     -2.32160848006781
  N   2.96361250594608      0.96497994140306      1.13067104920862
  C   2.65739694388804      2.29005595238949      1.11298361896093
  C   2.94394174549836      3.22003456514618      2.05180120934971
  O   2.62386548551651      4.47557490990258      1.56150049360552
  C   1.76749811795703      4.19497760873080      0.48174655040518
  O   2.09985448765790      2.86730539785332      0.02789993161141
  C   3.73059782164564      2.91394521880944      3.17905685151035
  Cl  4.44349712905475      4.20368626904964      4.05496530471210
  C   3.99208091225736      1.62744805866010      3.49380204763366
  S   3.15459676557070      0.33523506056391      2.71525597124955
  O   4.01664911275249     -0.79999566376708      2.65333246670733
  O   1.83265210488124      0.16817465814677      3.23194598813381
  H   0.64339837749392     -0.60888140827623     -0.83599459919034
  H   0.46088793022123      0.91684633240421      0.02990276779446
  H   0.66791393219873     -0.59043494733188      0.94517851194053
  H   2.86912318166457     -1.75575827258891     -0.93518568254178
  H   2.84150706578898     -1.87489161195628      0.83218797210069
  H   4.24652527782072     -1.17207845910133      0.02801825648954
  H   3.92590307380516      1.27909134441733     -1.22084860289426
  H   1.93617564682189      4.89961441339029     -0.32607636359948
  H   0.72495449082758      4.17608338440825      0.81607744560524
  H   4.69099897638022      1.30687951085821      4.25022955697169
