27
Coordinates from ORCA-job 24081optt
  C   3.09137496576981     -0.92686428604801     -1.33243634841474
  C   2.67080886737955     -0.24573838816207     -0.03945990766132
  O   3.30572455001867     -0.83294772283792      1.07762548836813
  C   2.95610023714045      1.25575330490426     -0.07017118310785
  N   4.39185192459551      1.43568488151814     -0.01101416415810
  C   4.99849243138689      2.53588369063268     -0.15906822412953
  N   6.41330098122942      2.45543314978088     -0.04936712958941
  C   7.14442177373621      3.46680995307563     -0.19043589409960
  Cl  8.86607133382464      3.27944940913763     -0.03845035810077
  C   6.66225927057755      4.82124733188218     -0.47699639869311
  C   7.39687393627076      5.92986223502239     -0.64514250251507
  C   6.67890015919108      7.15874180534950     -0.92887210552269
  N   5.41274871845322      7.27871284132677     -1.01824496658577
  O   4.64911388438129      6.13874126616640     -0.82965168036903
  C   5.23513935575860      4.92099125047949     -0.57679857387607
  C   4.42250991461275      3.86218355919328     -0.42128698840542
  O   3.07632665169914      3.97922427437831     -0.49735893547371
  H   2.91862321347830     -1.99980945321631     -1.25919296708754
  H   4.15460261187571     -0.75680664165269     -1.51391298538649
  H   2.52725327497404     -0.53685103671058     -2.18199840095337
  H   1.59871823115711     -0.38488105063187      0.11657118948456
  H   4.22288580219658     -0.52749480919564      1.06040695277106
  H   2.49773769669424      1.72740560555695      0.80361574757091
  H   2.51723778247936      1.70964814265440     -0.96077559006225
  H   8.47427423547606      5.92819735803505     -0.57880402312618
  H   7.21038160957391      8.08859426045214     -1.08682186406075
  H   2.85126658606905      4.90482906890901     -0.66095818681591
