31
Coordinates from ORCA-job 24087optt
  C   0.93895328122900     -0.10583856349887      0.02813894310578
  C   2.45706867689355     -0.11157235589422     -0.06863719969892
  O   2.89254900570935      0.49239245557370     -1.27827363497101
  C   3.12946463509345      0.56745762669253      1.12451603491030
  C   2.74546514651064     -0.06058982456553      2.47020716599292
  N   2.88876036345114     -1.52044802336749      2.44659512410900
  C   3.06140264598758     -2.22327567412123      3.62606258141392
  C   4.14128834464551     -2.09550759941134      4.44362856718603
  Cl  5.42845309283754     -1.03703064657729      3.98359496641668
  N   4.36695047369747     -2.72654162735373      5.63555754621795
  C   3.56577270468534     -3.59467475631785      6.10124311444279
  S   2.10228482656175     -4.17007408807424      5.37347988262343
  C   2.00821928113473     -3.22191622425773      3.89188891527803
  N   1.06683756881844     -3.37134832418923      3.04966673628096
  C   4.65147549496054      0.63131008265699      0.99207566476448
  C   5.37520554751915     -0.55570913656723      0.41804426901538
  O   5.23307831650903      1.61837113785769      1.36857047452634
  H   0.51541474296210     -0.50305444500901     -0.89329938661020
  H   0.56839640152952      0.91323800566566      0.17046554810986
  H   0.57741601859403     -0.71387295434270      0.86008301291395
  H   2.81038701412079     -1.14266343439493     -0.13950891817006
  H   2.62602615155894      1.41845805812979     -1.27841879421062
  H   2.79927911224685      1.61146397569269      1.16199062319226
  H   1.71020899048888      0.20492063614651      2.70960603280116
  H   3.37558524029022      0.35845295531978      3.25083848290570
  H   2.12184560691426     -1.94736444849796      1.93693726748653
  H   3.78106119088529     -4.06457634003976      7.05605197423051
  H   0.39576942691055     -4.09007147943368      3.30677585562581
  H   5.03263685882333     -1.47092033617029      0.90292730570436
  H   6.44558121289584     -0.42652454775056      0.55567522578650
  H   5.14216262553510     -0.62749010390046     -0.64648338137988
