35
Coordinates from ORCA-job 24093optt
  C   0.87898737456011      0.11794005524662     -0.46317469276065
  C   2.36680863863516     -0.04235018473382     -0.18192842430941
  C   3.00605297641396     -1.19387732450405     -0.96277808735834
  N   2.88808456688233     -1.07395133841954     -2.41382944494022
  C   4.48643673056845     -1.36542551794208     -0.56060056763342
  C   5.44311483432277     -0.29929594960299     -1.14882082509792
  C   6.36440849133218     -1.00963018737562     -2.17399868419507
  C   6.07099820273518     -0.61732863392993     -3.62864266155994
  C   6.48539859733473      0.81850698772249     -3.92778583359892
  C   6.10686380876916     -2.46964293259155     -1.89540322655024
  C   5.08335678610100     -2.66045640080062     -1.04097627523667
  C   4.62472867144256     -3.96240767115669     -0.56285975716588
  N   3.78641364682158     -4.21824073735966      0.35739168010061
  S   5.32791039471268     -5.36934400698670     -1.37108953598356
  N   6.56866504022893     -4.81527917034346     -2.30070520377819
  C   6.84308309087786     -3.58828210763176     -2.45015006175267
  Cl  8.26600359490201     -3.21944569703370     -3.39404661148713
  H   0.44662448923530      0.91127849584467      0.14611673114874
  H   0.34045467928897     -0.80567662144153     -0.24028276892853
  H   0.69536264614993      0.36850535643340     -1.50884803887745
  H   2.52062896782124     -0.21578143058801      0.88693412317155
  H   2.89516334689265      0.88636601365046     -0.42418309192319
  H   2.47930210284771     -2.11409144763596     -0.69434996790608
  H   3.02602943134014     -0.11306957510267     -2.71100314851068
  H   1.96581817672677     -1.34764635675375     -2.72692982464850
  H   4.52212938403343     -1.34373693582337      0.53391132440501
  H   6.03453359894905      0.15071484235187     -0.35277887668423
  H   4.89078500116323      0.51210516119311     -1.62412081052336
  H   7.41558906332889     -0.78237765959170     -1.97249920909799
  H   5.00552884621018     -0.76501519414935     -3.81384430691791
  H   6.60564221611883     -1.29007474219539     -4.29985163674605
  H   5.97553534457145      1.53221854689341     -3.27752597205712
  H   6.25278686511322      1.08706607993236     -4.95829084018321
  H   7.55948631628006      0.94965308258589     -3.78227740501067
  H   3.40928407728821     -3.36892679816037      0.77222193259731
