31
Coordinates from ORCA-job 24097optt
  C   0.97972744035764      0.12132112605819     -0.23159965716211
  C   2.46945660886084      0.02476180096510     -0.11668508451424
  N   3.13999979509267      1.12166932195483     -0.10189221440041
  C   4.51464505830734      1.10692976857818     -0.02777748545031
  O   5.16078851266510     -0.15418956422353     -0.02369125919268
  C   4.43236776062084     -1.26498205451427     -0.01410614378276
  Cl  5.42631412866335     -2.66580706391070      0.02879204987419
  C   3.09314000081022     -1.30074593660215     -0.04672711413740
  C   2.30525869165113     -2.58188894498094     -0.00089223809390
  C   2.13994707175003     -3.12181478728232      1.42056005232219
  N   1.46083421015405     -2.14239088808662      2.26606560021737
  N   5.20731147625754      2.15031084474299      0.01959678283494
  C   6.61775080650317      2.11683330168584      0.09903874915036
  C   7.35055165512915      3.19176683495243     -0.67441995366416
  C   7.28239077486831      3.28017036203379      0.80484007656506
  N   8.48472325919368      3.13062576827788      1.57482717497861
  H   0.68933648133606      1.16751937223693     -0.21214427154993
  H   0.49782891310325     -0.42780480825763      0.57902886561636
  H   0.64939914903249     -0.32703509793223     -1.17198194828627
  H   2.80320636127946     -3.33797149423164     -0.61001347076255
  H   1.31739741619875     -2.41523309182006     -0.42858549980242
  H   3.12354661347710     -3.41817628191221      1.80456837548996
  H   1.52255777081782     -4.02049416295609      1.38190899767587
  H   2.07713305422156     -1.36136035077133      2.46618110883250
  H   1.21139760247286     -2.54984746724394      3.15855785844308
  H   7.11822037865089      1.15863332509700      0.18736342010231
  H   6.73965603832569      3.86310998747916     -1.25897733977056
  H   8.29772302485219      2.91447386083484     -1.11868709272430
  H   6.58796069030680      4.00703015709139      1.20552903772253
  H   9.20430695389792      2.65254828075547      1.04788280240222
  H   8.32012230114201      2.60603788198163      2.42543982106643
