28
Coordinates from ORCA-job 24101optt
  C   1.02247694053593      0.02112114267286      0.25248710544563
  C   2.54976311485258     -0.05564529554471      0.17884005962431
  C   3.08189036078980     -0.57420211291642      1.44005195086011
  C   3.49932250064618     -1.02756874843338      2.46780934760891
  C   3.03287660567735     -0.91553864158249     -1.01593801318994
  N   2.49609671339661     -0.49308960402719     -2.30105450424827
  C   4.56562897680132     -0.90676295421356     -1.10300641891038
  C   5.07835745913937     -1.94192399663411     -2.05472969321622
  C   5.42251387295200     -1.64884313169885     -3.34563258685503
  C   5.86859729730629     -2.68772260963706     -4.17793431478750
  N   6.26792648889646     -2.45066728410569     -5.47280183986434
  N   5.97265850460701     -3.93929677972589     -3.75177068855864
  N   5.64783868939571     -4.23124339924148     -2.50557220263731
  C   5.21902802715310     -3.29824099902145     -1.69973009337474
  Cl  4.80612968483185     -3.81700692980820     -0.09461854254940
  H   0.71307165302731      0.59658978772441      1.12348470184223
  H   0.60016653446595     -0.98134589738317      0.34165334134713
  H   0.61331770584193      0.49897413804007     -0.63693356688435
  H   2.94834716212846      0.95664124467241      0.03458659539781
  H   3.87443657478587     -1.42910986636714      3.37880176327335
  H   2.69954607161906     -1.94197091916589     -0.83831357791043
  H   2.60618527248996      0.50781201402110     -2.43009559787814
  H   1.51143295971376     -0.70760686250647     -2.38821766952098
  H   4.98715215168651     -1.07475021555641     -0.11196159355514
  H   4.88380015757408      0.08311476171928     -1.44262039007979
  H   5.34755542971411     -0.63534634079341     -3.71991319752818
  H   5.84414732125053     -1.67175614089745     -5.94795827346833
  H   6.36973576872083     -3.28461435958965     -6.03091210038233
