26
Coordinates from ORCA-job 24108optt
  C   0.93817068880791     -0.10783519658106     -0.39684048518345
  C   2.38203606309379      0.08219081802889     -0.07472143003461
  C   3.01096863548401      1.26523009380436     -0.02503042153998
  Cl  2.23376213128997      2.76988697766949     -0.34132252083751
  N   4.36896747325994      1.36200488791439      0.28987035674775
  C   5.03851210194817      0.18757341091507      0.53722124440883
  N   4.53621830691309     -0.98008538463857      0.50986301730095
  C   3.17266448835484     -1.13257219272861      0.20086958866951
  N   2.60732634264774     -2.27133626947434      0.14889867805479
  C   5.08092316875003      2.58864751839359      0.30232622609726
  C   5.89861960803471      2.93678016508860     -0.71603510699802
  Cl  6.11351504122007      1.97126563132065     -2.11170699901349
  N   6.60734565568348      4.09697641055523     -0.69047032315897
  C   6.55193293438659      5.04608903075765      0.34744795351677
  N   7.20489157249086      6.13837088668629      0.36222431074195
  C   5.66324255275443      4.65800729304212      1.43270313326078
  C   4.97826725680459      3.50220671726909      1.40738836797609
  H   0.42728337541469      0.83405155721127     -0.57307776011003
  H   0.45441253179070     -0.64462680800584      0.42009746810590
  H   0.84637510391467     -0.74851481761487     -1.27498060859365
  H   6.09016150094759      0.32677642799518      0.77085377749748
  H   3.29313270258499     -2.99366755128809      0.36356363152397
  H   7.20722699236268      4.29445775270075     -1.47789236281804
  H   7.78327525483721      6.27007649025611     -0.46448224726237
  H   5.59202749965326      5.35288888834214      2.25609947620406
  H   4.32174101656997      3.22815726238048      2.22413303544403
