30
Coordinates from ORCA-job 24119optt
  Cl  4.06113127838290     -1.19877343231500      2.55906421243318
  C   4.09046830779939     -0.43851751468125      1.00807372989668
  C   4.65117061794095      0.77922473414647      0.91316243269296
  C   4.76460668334454      1.56665041265044     -0.30603958308314
  N   5.20989096735194      2.74996906990607     -0.41453233352431
  S   4.27058210445730      0.81018075688203     -1.83061927045633
  C   3.59571060068811     -0.69128137811795     -1.34667802734584
  C   3.50560913746845     -1.18894687766558     -0.09815255643816
  N   2.88668161388310     -2.43505306544983      0.18291507227707
  C   3.65003221580259     -3.60276263367557     -0.17204317835933
  C   3.71729927794015     -3.86818050897021     -1.63097456130158
  N   3.73903939633267     -4.01617431664201     -2.76744971843326
  C   1.42645162016813     -2.54563252083534      0.09771435039749
  C   0.72452658472547     -1.48343652510782      0.97108401314537
  C   -0.37480709421480     -0.90569276508296      0.06683710619873
  N   0.11898541412964     -1.04343991064741     -1.30321067676229
  C   0.76975577742920     -2.35049683353656     -1.30197563438050
  H   5.05158155069467      1.24340801171721      1.80651248764894
  H   5.49576354416904      3.12184607266772      0.48956167529554
  H   3.22051403356850     -1.26106516795982     -2.18792722566682
  H   3.21603614925477     -4.48128329734038      0.30886220729056
  H   4.67315374115989     -3.49715521834138      0.19381192788569
  H   1.20024978573956     -3.54780213694556      0.46704059378085
  H   1.43316330132828     -0.69630412306465      1.23212845174443
  H   0.34893560408472     -1.90276495801137      1.90314749785973
  H   -0.61650372029132      0.13121164097840      0.29259656628744
  H   -1.29289074757240     -1.49256988920312      0.15506451512170
  H   0.80422643550645     -0.31742146414663     -1.48766719708458
  H   1.46383423171866     -2.46004657654397     -2.13298107485389
  H   -0.00519841299060     -3.11068958466395     -1.43232580226630
