30
Coordinates from ORCA-job 24111optt
  C   2.74721140477964     -0.54216630254321     -1.38029409465317
  C   2.51437633171867     -0.22474968655197      0.09158555845552
  C   1.02338216143638     -0.09503839041104      0.39390725900389
  C   3.18868372020463     -1.23013142407535      1.07285117649854
  C   2.50931294944277     -2.58504347280427      0.99236095059358
  O   2.62455021575312     -3.36731502766074      0.07359335884178
  C   1.62004893158322     -2.89971563156028      2.09882091369598
  C   0.92194605193044     -3.13748743393581      3.04302916703019
  C   4.70544405792419     -1.21379863762583      0.96587266753200
  C   5.45085033041934     -1.91803535824691      0.06657485536378
  O   4.99605351280954     -2.77694188702572     -0.85547498013486
  C   6.91953811319140     -1.78956630103907     -0.02088915254332
  N   7.68641329941492     -2.39224551477475     -0.83884516744182
  N   7.46804974813088     -0.91536380542972      0.89646763295983
  C   6.75361344566099     -0.18250046918107      1.79223044926269
  C   5.41692007518713     -0.30428087330844      1.84963307931197
  Cl  4.57031115250243      0.68973578345563      2.99613009555293
  H   2.29396594561038      0.23888877597601     -1.99266144759355
  H   2.28334630617059     -1.48997014186837     -1.66064707137444
  H   3.80753386650215     -0.58937754741693     -1.62683004773188
  H   2.99587713269744      0.73137746951087      0.31929245524050
  H   0.48656075816309     -1.01387041146477      0.14349782293763
  H   0.58942940541761      0.70778165935351     -0.20265862816719
  H   0.84423479249708      0.12696110626770      1.44741865710728
  H   2.95074387492166     -0.86448223347504      2.06906155244568
  H   0.29870444556542     -3.36561242150419      3.87611652266686
  H   4.05260007941813     -2.99918376603646     -0.71220916368910
  H   7.14384610019771     -3.00350817675895     -1.44047016402550
  H   8.47144211783506     -0.82481447549270      0.84640885702082
  H   7.30800967291388      0.48445459562792      2.43412688583339
