26
Coordinates from ORCA-job 24123optt
  C   1.09907904736232      0.03951778563198     -0.53729704348358
  C   2.34759994607265     -0.23027124772228      0.26056104280084
  O   2.72284200429427     -1.36220207828923      0.46392956784192
  C   3.09679316648622      0.92340972368966      0.85412658559083
  C   3.95343639534307      0.66261982172743      1.87027006834622
  N   4.70168793862640      1.60031271626510      2.53386842896648
  C   4.45057066730888      2.83847873038943      2.26480064263319
  S   5.42105916260612      3.93760027091324      3.22281064305047
  C   4.71320186289304      5.47155005193652      2.91148435772904
  O   5.27573064652726      6.51268680215463      3.53617586084202
  C   3.63193216835252      5.65998574247676      2.10696655374370
  Cl  3.04425431481880      7.28489628668696      1.98888153365965
  C   3.01641934452196      4.62675031933279      1.32739132247576
  C   1.78844081943381      5.01975755275755      0.55459043964149
  C   3.49173531837114      3.32998499200969      1.31089564700590
  C   3.01612164022395      2.29393122501383      0.34762773657383
  N   2.65504067435088      2.51889333429313     -0.85844135419507
  H   0.50118167536265     -0.86861740904845     -0.55502190307562
  H   1.37989093076669      0.32414794958706     -1.55084121589862
  H   0.53428747189594      0.87413389236872     -0.12269927148087
  H   4.08520603600342     -0.36109712426388      2.19749711948654
  H   6.00632353236898      6.23826196514825      4.10416338668869
  H   1.15373038640610      5.63955066641320      1.18593172043003
  H   1.23174233903810      4.14918130954270      0.22282025076426
  H   2.04644048171152      5.62853443276467     -0.31560818414421
  H   2.75525202885324      3.50000228822048     -1.10588393599291
