19
Coordinates from ORCA-job 24124optt
  Cl  1.20831304127907     -0.87510343127960      0.98767222156055
  C   2.77331142577937     -0.44919283668523      0.44795303077475
  C   3.15852913716832      0.83791237830505      0.37519625248983
  C   2.41871981988512      1.91671956601934      1.06099604202086
  N   2.41980020333292      3.15569333437131      0.78394145273763
  C   3.02510697677174      3.60142879658873     -0.38454665915933
  N   4.12571024606346      3.26086634793056     -0.93015701265724
  N   4.96505320251002      2.30150118282475     -0.46280538286118
  C   4.53696850205025      1.17243065000213     -0.03080023377043
  C   5.52583227656235      0.08556315146609      0.03961394326935
  C   5.12440676869681     -1.19195139820787      0.08307905218102
  C   3.70405970307654     -1.56430784490030      0.15790626200711
  N   3.26027880133743     -2.74985340385107      0.05803913114042
  C   6.92027003464346      0.40678364031205     -0.06862297649074
  N   8.04598909546331      0.61189924515590     -0.13198863815061
  H   1.87535539104525      1.60650391226692      1.95262313585252
  H   2.49041371677652      4.40586479708783     -0.87899414285223
  H   5.84700295899380     -1.99792704275161      0.04561892230875
  H   4.01687869856422     -3.41583104465498     -0.09972440040101
