30
Coordinates from ORCA-job 24133optt
  Cl  0.96615441389984     -0.02438694356141      0.17453339965181
  C   2.69672749473854      0.02429870951908      0.11090388949680
  C   3.36262324734002      1.22491401569895      0.38794134571718
  N   4.69171795223218      1.27886008718051      0.36617434975668
  C   5.38083172737915      0.18333805375917      0.06683607847530
  C   4.78814687345866     -1.03194901389154     -0.22446313951313
  C   3.40304890700507     -1.12989863805143     -0.19882543347465
  C   2.71273844500404     -2.44495129821172     -0.47360103013817
  C   2.23814719513163     -3.07170290426815      0.76021246071421
  C   1.87144474728982     -3.57345883478762      1.78294191451816
  C   2.60038544867542      2.47503889479297      0.73765053159793
  C   1.73811329011512      3.06754585950182     -0.42842163235852
  C   2.32003846353320      4.48424132034035     -0.45914638894859
  C   2.40915553725141      4.82632698556059      1.04568397862585
  C   3.47139514463136      3.70120731700448      1.03460994918260
  C   3.83869172803011      4.20811057070183     -0.37980749356846
  H   6.46053855829579      0.28335837133580      0.06130433444445
  H   5.39279440391341     -1.89794806966081     -0.46090689173928
  H   3.41071985471422     -3.11834689219872     -0.97286951866556
  H   1.86545135754716     -2.28845096511953     -1.14435513825224
  H   1.53917227558514     -4.01335709773607      2.69258180234709
  H   1.95673694323380      2.24178036874684      1.59015227887524
  H   0.67338024855848      3.05196983920282     -0.19811565361446
  H   1.89312679931633      2.53344174263415     -1.36738534118384
  H   1.89643319931114      5.17609280540292     -1.18341545694336
  H   1.51572219062839      4.68407812751986      1.65648866235860
  H   2.84813997134103      5.80622138351779      1.22542603835108
  H   4.21668648579866      3.59326352418722      1.81661277758326
  H   4.27278917494039      3.49608397681695     -1.08070146048466
  H   4.42594792110045      5.12427870406288     -0.34503921281132
