30
Coordinates from ORCA-job 24138optt
  C   3.66207282080397     -1.06419723255999      0.26608229205449
  C   2.55769263511492     -0.26665661972442     -0.41866396885760
  C   2.83975015483960      1.21966520836848     -0.46819381692822
  C   4.09064061022698      1.61932886223420     -1.21032196130031
  N   1.69192671471804      2.10982791340929     -0.64070761085222
  C   2.35304676231312      2.04286772382699      0.66524598178498
  C   3.05810360483291      3.29638218714321      1.16029868523979
  N   2.91904500733725      4.36965907441996      0.20379500333181
  C   3.54988129160203      5.55027103528018      0.33127502511679
  N   4.31413643197073      5.73902618347417      1.41662784928312
  C   4.92370391389000      6.91114355363230      1.51317489181108
  N   4.86956077242318      7.92702277347445      0.66315283606845
  C   4.10868950739568      7.71589151095489     -0.40174664822192
  Cl  4.00589540991056      9.01235976606370     -1.54916791366549
  C   3.41433644201178      6.55959739572072     -0.64375003893201
  H   3.37937988497662     -2.11183580666778      0.36670663650391
  H   3.86142134351222     -0.66905809260110      1.26409828416545
  H   4.59104639485124     -1.02586044405667     -0.30304639483257
  H   1.61199735195248     -0.42304924257263      0.10901066221729
  H   2.41362052257354     -0.63231930657366     -1.44033147120312
  H   4.07483464397194      1.20817678525662     -2.22181556901430
  H   4.97889568200651      1.23953209092037     -0.70324649474854
  H   4.17692043115967      2.70181917951682     -1.28159176804862
  H   0.81762372149280      1.59561026445060     -0.63976262806657
  H   1.83298562600530      1.49768150616480      1.44548219461546
  H   4.11843988668175      3.09237140247538      1.33418978430230
  H   2.63995231187480      3.59935298836070      2.12318381627323
  H   2.32879705271446      4.18107732188843     -0.59381719346355
  H   5.54165774966219      7.05838609982489      2.39248265912811
  H   2.80494531717357      6.42992591789493     -1.52564312376123
