26
Coordinates from ORCA-job 24145optt
  C   3.28633801895884      1.29979698111915      0.19306986122976
  C   3.33223099757981      0.82715794031153      1.64044191443411
  C   2.22045983548881      1.38490702512219      2.49477466370222
  N   1.76247174125520      2.55168002929332      2.21378473801965
  C   1.35300893547446      3.41143075086122      3.16960347189254
  Cl  1.10519525467878      5.02355483601919      2.60708405257553
  C   1.46632444288000      3.19971444858466      4.50710397444504
  O   1.99581318604944      4.20828054475137      5.29043306604303
  C   3.35452332101199      4.26176052948103      5.02355093314157
  N   3.89265298430918      3.32260082825098      4.40420521245429
  C   5.20827511697157      3.27801191361129      3.81984927127223
  C   5.03348377205316      2.75828671468939      2.38065731330889
  C   4.63673193295859      1.28111500734422      2.36221061624780
  O   5.33219882830169      0.45980906929709      2.89143187478442
  C   1.49955398059301      1.86968082693885      5.09707195616939
  O   1.37428357781287      1.60240752055599      6.25576183085202
  S   1.86841817131758      0.51318589321273      3.94293360737230
  H   2.38686947775173      0.92346795716340     -0.29324178236441
  H   4.15509076195634      0.92612776213528     -0.34871546522286
  H   3.26580356642766      2.38566053355405      0.13188992596611
  H   3.34674184844925     -0.26110519432296      1.70283625777810
  H   3.78784660834226      5.18953892843818      5.39539726363615
  H   5.71257418458440      4.24971206163056      3.81389420368684
  H   5.82275291984549      2.56733763705676      4.37547704383701
  H   5.98670785132915      2.82540630556968      1.85080922954869
  H   4.30064868361868      3.37547314933081      1.86068496518954
