30
Coordinates from ORCA-job 24142optt
  C   2.77405142015405      0.63811314302547      1.03786372246296
  C   2.62288313012668     -0.18854745275267     -0.24225572650777
  C   3.01920255230883     -1.61459161992435     -0.04684892447262
  C   2.20992449954337     -2.67134534560041      0.04026986473268
  Cl  0.49690857635963     -2.55907983351593     -0.07329070961891
  N   2.73984101640156     -3.93946324903661      0.24972587665491
  C   2.08767082565750     -5.14391257331869      0.33516833834408
  C   2.90710703936449     -6.18027494673976      0.06843122704289
  C   2.60001052024867     -7.63478135599326      0.09549464228303
  C   4.21312416615238     -5.64500799091794     -0.30632894099506
  N   5.11681865497118     -6.45754165925504     -0.72375320685665
  O   6.28473842351827     -5.82006941877003     -1.14803211609168
  C   4.11738460897429     -4.18301938911345     -0.12893808114041
  C   4.94783586755647     -3.11965434564617     -0.13367136971867
  C   6.42937005651997     -3.07583482996449     -0.32091630004294
  N   4.39821663135549     -1.86658700178655      0.10410467867312
  H   2.52190541484559      1.68233686191583      0.85366727596043
  H   3.79521387024116      0.59975479234321      1.42002092509133
  H   2.11312166658573      0.25349876192721      1.81463658051477
  H   3.24332202776260      0.24003399712864     -1.03624503045380
  H   1.59256964437733     -0.14769418656350     -0.58984516826566
  H   1.04181895102210     -5.16895581747192      0.59761473944670
  H   1.56361054160603     -7.80993236952222      0.38228852729806
  H   3.25300303016277     -8.15634930529450      0.79847969919519
  H   2.77589828593354     -8.08121476364573     -0.88529956970797
  H   6.80343755191465     -6.54750512723526     -1.50213932617430
  H   6.88510730739704     -4.04477083807877     -0.18032960803709
  H   6.84606513926427     -2.36986727315233      0.40110606364586
  H   6.67085986344248     -2.71677068220286     -1.32417711694646
  H   5.00997871623178     -1.08196618083783     -0.05380096631603
