26
Coordinates from ORCA-job 2415optt
  Br  2.64615874730681     -1.69690927556336      1.70877202656524
  C   3.72626311769707     -0.91788409912408      0.40218315971011
  C   4.32618998737524      0.26500265522693      0.52774197887480
  C   4.50812457625055      1.38657187032286      1.48909143157504
  C   6.04787912131368      1.50986918221217      1.68966714337204
  C   6.20202488310491      2.72455834328281      0.80962326260032
  C   5.22788851924202      3.76304056093886      1.49571895232862
  C   4.40458286026731      3.21392656694319      2.73616555478799
  O   3.86084810109959      1.85176399018780      2.63127940963095
  C   5.81018071935506      2.11406747625910     -0.62155117369281
  C   4.96745134020203      3.01941726674487     -1.39907655491266
  N   4.27728519083756      3.75337228384347     -1.94545362833440
  C   5.11785185182002      0.69113001618951     -0.63322370374441
  N   5.29010472071502     -0.01544872807690     -1.68399043010834
  C   4.67811891805190     -1.26187424536232     -1.77086850536330
  O   4.78957391140246     -2.01687002395075     -2.67531036350509
  O   3.84971585782779     -1.65549042585965     -0.70405824949221
  H   4.20488820642501      2.14958940695063      0.77727709959193
  H   6.61063608724691      0.63895415942620      1.35624828479080
  H   6.28714104061434      1.69099871724292      2.73454981209493
  H   7.20699596486514      3.13537905855578      0.72122671868268
  H   4.55285608678590      4.20877810150380      0.76406211727205
  H   5.82338651955679      4.58561086009879      1.89477224878634
  H   3.55744371407892      3.87410424854450      2.91458573873381
  H   5.04101097393793      3.23097169090802      3.62035147602696
  H   6.73139898261993      1.96237034255481     -1.18578380627142
