33
Coordinates from ORCA-job 24169optt
  C   1.84133401586101     -1.31650611252761      0.92600246728197
  C   2.73990564245259     -0.29702589033189      0.22104728206138
  O   2.07641173092661      0.28980351916619     -0.86117332957883
  C   3.25705324870564      0.68736164589824      1.25595864386285
  C   3.08653966278510      2.03393270000502      1.31854716114911
  C   2.60932234974876      2.85897747211177      0.15141952936247
  N   1.13611528755760      2.90771354157774      0.07854951127734
  C   0.85979702745901      4.10474170571098     -0.72419414547334
  C   1.88070267248288      5.14459824084998     -0.24811231573610
  C   3.15454268674484      4.31725292772433      0.00403477515281
  C   4.14410455941250      4.40151789814614     -1.15298699137018
  C   3.26761488588884      2.52817271228471      2.66838981017098
  Cl  2.44373230984238      3.99803399894122      3.11339121164065
  N   3.87777542401937      1.92648000152164      3.60688650943061
  C   4.44913343261148      0.70239632981714      3.29418539002181
  N   5.39493367199188      0.12349382459748      3.87761213056846
  O   3.83870266535676      0.01378141748879      2.25913644394315
  H   1.46866115608271     -2.00988845602614      0.17451442429833
  H   0.99042310828049     -0.80537232903883      1.38142098790945
  H   2.37647256172818     -1.86769891824961      1.69575858935357
  H   3.60951484434128     -0.81475509445188     -0.19298254281255
  H   1.38745947013823      0.90182111619279     -0.54653227928104
  H   2.93853737201936      2.33709862805821     -0.74526271705932
  H   0.76959334951665      3.05576790361529      1.01506636838852
  H   -0.17692613894919      4.41599207613512     -0.61005563458562
  H   1.02575013992809      3.85627240303973     -1.77572137344640
  H   1.52752215932713      5.59498158559218      0.68148534491592
  H   2.04479850494279      5.94443563896266     -0.97123653552371
  H   3.65422386148392      4.65416180898534      0.90948353317926
  H   3.65531772174129      4.15141984342523     -2.09808118466228
  H   4.97173304871584      3.70318320881762     -1.01183392110850
  H   4.55919695815235      5.40594340003228     -1.24160705670393
  H   5.71300060870360      0.69891125192811      4.65288991337317
