35
Coordinates from ORCA-job 24161optt
  C   4.97399475796994      1.70242956374497     -1.95580853069579
  C   4.27683382412803      0.80340965163265     -0.95088455268424
  N   4.78190823135181     -0.56050696080909     -1.05352283537511
  C   4.37781797197329     -1.45003879141826      0.03174877855556
  C   2.85977140201063     -1.53104272426289      0.11500026267209
  C   4.99843892339934     -2.84173209058440     -0.18933814247917
  N   4.51963695859438     -3.52445503341910     -1.39144920361603
  C   6.52642069638018     -2.77195010916371     -0.24870381358781
  C   7.23630216842706     -4.07654248676080      0.13418721190612
  C   6.74347925673455     -5.27478753361010     -0.61883978801989
  N   7.36975522198941     -5.60991253470006     -1.67671076309804
  O   6.87476039346655     -6.69440951264686     -2.38620251853942
  C   5.71399216640382     -7.31894501679068     -2.04624997815498
  N   5.18313501653892     -8.20464266968996     -2.75947773061116
  C   5.16289449017649     -6.89445140083094     -0.73950410193587
  Cl  3.81177225633927     -7.76529552010170     -0.15380923702531
  N   5.64426112636638     -5.94551766613244     -0.06493869586907
  H   4.58254686113674      2.71812321262432     -1.90550259353153
  H   4.83118049569158      1.32291239678717     -2.96776420694180
  H   6.04735373365735      1.74818465446689     -1.75772516265726
  H   3.20436256188207      0.79474448565561     -1.15277299759452
  H   4.40701628993260      1.20856044428636      0.06522671516814
  H   5.79503323923394     -0.52045520070847     -1.09147139364552
  H   4.75120912442132     -1.07972689068972      1.00248520516327
  H   2.43582997462664     -1.73012299630310     -0.87094689432123
  H   2.42887745732921     -0.60235769887955      0.48760634474225
  H   2.56138874117892     -2.33133823673378      0.79444207245023
  H   4.71456157092931     -3.45787443838120      0.66983175056503
  H   4.53875710262757     -2.86769073238143     -2.16695039818280
  H   3.55724146801495     -3.82079636437450     -1.27701187392065
  H   6.89097996271295     -1.99097664617010      0.42487705922268
  H   6.82526974716659     -2.49782139120844     -1.26469261346280
  H   7.08445391570137     -4.27770770132275      1.19605875287941
  H   8.30482509090188     -3.97283599200278     -0.04955211595952
  H   5.71393780060484     -8.35043006912104     -3.61763401141522
