23
Coordinates from ORCA-job 24183optt
  Cl  1.61795782838935      1.11113594827738     -1.20814710548827
  C   3.02314021847389      0.40402743521220     -0.46827624788532
  N   3.59549060030949      1.09239549388377      0.49094529054146
  C   4.67763299623383      0.55202357684831      1.05703298023838
  C   5.21297394150905     -0.66384996696969      0.68356428824309
  C   4.57691387522111     -1.38696449172643     -0.32687368158884
  C   3.45219353011009     -0.83423090791365     -0.92923368717185
  N   5.13304791087646     -2.59452225501862     -0.75413502390833
  C   4.44953077597212     -3.66790181580086     -0.74682594608747
  C   3.07964533471134     -3.93727470868940     -0.27448556845915
  C   2.86738992741023     -5.24698566452319     -0.46776298474327
  O   1.73696075160666     -5.89387849938953     -0.15085120550166
  N   1.55934068243667     -7.25033463726507     -0.38456905238224
  C   2.48253301061717     -7.95016242185251     -0.89882260260388
  S   4.09406923916045     -7.56459936215283     -1.43781932236862
  C   4.06989140089720     -5.88181116078450     -1.07275188994799
  C   5.01058662112616     -4.94858740403265     -1.23585441934934
  H   5.13921862138263      1.13483680518572      1.84543552833542
  H   6.10226947282101     -1.05757271409612      1.15465574037080
  H   2.94224727634705     -1.33896485926730     -1.73730577123513
  H   2.39677959820874     -3.22558381022214      0.15745402749842
  H   2.22053595916100     -8.99343781857635     -1.03002826025903
  H   6.00465042701824     -5.05075676112650     -1.64034508624718
