26
Coordinates from ORCA-job 24180optt
  C   0.99174108767991      0.20874827233125      0.26055338718200
  C   2.49359839636094      0.12166691039006      0.08943764526694
  C   3.43099510351702      0.89296884787692      1.07367686207448
  N   4.04636809668838     -0.38621608171984      1.41330108225023
  C   3.13097644352931     -1.12844881395740      0.67675871482108
  N   2.85249448025255     -2.34610790694187      0.53447086729600
  C   2.75798060074689      1.60194800107707      2.22365777288719
  N   3.07363776616170      1.15077212809848      3.37493214310166
  O   2.51528443286545      1.72139888795702      4.50739517871245
  C   1.45145158600892      2.52639638592205      4.39794452824925
  Cl  0.75044695463518      2.77578475237691      5.91985934884811
  C   1.01519618975078      3.03599005439412      3.23211935868828
  C   -0.22390651081633      3.84133742468832      3.08477696090954
  O   -0.80424637385334      4.38648426798363      3.98340925694477
  C   1.81953030892949      2.73431504849286      2.05008723698147
  N   1.65078713605590      3.46719509304682      1.01858493858033
  O   2.42688086957412      3.11043092743716     -0.06337146670092
  H   0.60925539861952      1.17034593076622     -0.08113738753921
  H   0.70275018453493      0.05980986123590      1.30351370152999
  H   0.52343129137354     -0.58507744352606     -0.32077595534931
  H   2.78469090849479      0.29400601814191     -0.94559514759877
  H   4.11481588112372      1.59139547084541      0.59356036480899
  H   4.41551826830416     -0.62543572398531      2.32262973026865
  H   3.44022086214955     -2.94724800773894      1.10969553058765
  H   -0.58755099908558      3.89583583990951      2.04672724967008
  H   2.19265163639848      3.76370385489778     -0.73021190247097
