28
Coordinates from ORCA-job 24181optt
  C   1.09289385295137     -0.09102841733028      0.70962776480258
  C   2.49479990742587      0.05587126831567      0.19015687213433
  C   3.14888905018625      1.24241159672716      0.17421709200786
  C   2.44683552808876      2.50307592156683      0.61221866330615
  C   4.54280791731805      1.38157654664333     -0.24081058709779
  N   5.16967419722361      2.65648530961425     -0.10077809006351
  C   5.46644923261251      3.39759081582314     -1.19608929796149
  C   6.07854116888524      4.59652566480451     -1.07914160862698
  C   6.38101893874538      5.01671611537743      0.24964844866087
  N   6.12237855640079      4.33314108748534      1.31293043968672
  C   5.51403352923843      3.08895509918416      1.20377403320125
  N   5.23641688783909      2.31932307174075      2.17535955794288
  C   5.28133052453662      0.36765135659307     -0.71745302314464
  Cl  6.93802698194365      0.55155651505548     -1.14449620162929
  S   4.71099661810446     -1.24139376473183     -0.94755344543474
  C   3.06022861556333     -1.20757342627660     -0.29812098460010
  N   2.37354078322015     -2.27753562288652     -0.29371123655544
  H   0.77419235242716      0.77332598215121      1.28254983457228
  H   1.03575895732213     -0.97735752565702      1.33976395921404
  H   0.39384820201800     -0.25987581952573     -0.11303466597888
  H   1.41483569395485      2.51074608985738      0.27082929355006
  H   2.93607578842352      3.39110071144316      0.21932526773154
  H   2.45948457533320      2.57878222014861      1.70110669567347
  H   5.17451745299243      2.96187827717274     -2.14263517371995
  H   6.31656031372227      5.19779384596832     -1.94089804205109
  H   6.85996260192024      5.98089816220712      0.40319563855469
  H   5.53750602658595      2.76356639844231      3.03801469405831
  H   2.87439574501654     -3.08220747991404     -0.66499589823312
