32
Coordinates from ORCA-job 24198optt
  C   1.13095333482723     -0.56971217125317     -0.73238712834537
  C   2.29073191936109     -0.02102725085942      0.10186251777036
  C   2.92037957432499      1.16839306259617     -0.56666163145526
  N   2.46258727419900      2.36379185655777     -0.19751729184726
  C   2.94857794695237      3.44539212398242     -0.79357678113908
  C   3.92475239413343      3.40091250801528     -1.77213542136731
  C   4.44226957131639      2.17456741623813     -2.17943299817577
  C   3.89715342529874      1.05063050149275     -1.56182323590051
  Cl  4.41339661526419     -0.54289492054173     -2.03729640225595
  C   5.47732355807182      2.10449464135852     -3.27540049833373
  C   4.77677265292648      1.74861580734000     -4.58866833209973
  C   6.40036314919552      3.34557417015537     -3.43234419487231
  C   7.64070547497478      2.43065312401772     -3.47316067721732
  N   8.27395410633499      2.37210496469535     -4.77886961125375
  C   6.74930437936340      1.24778345346705     -3.01169075778491
  H   0.65896315952071     -1.41320122176914     -0.22875045655282
  H   1.47816284186824     -0.90746520233240     -1.70942934324566
  H   0.37820358492477      0.20453984908797     -0.88419466761190
  H   3.03243577041493     -0.80191841849831      0.26969907780367
  H   1.92212381996965      0.31650533272193      1.06936748551031
  H   2.54116431053476      4.39593922338032     -0.46696875488474
  H   4.28193723511214      4.31855216815874     -2.21982259790622
  H   4.04159162815572      2.51525315179841     -4.84169330909918
  H   4.26659434263650      0.78782750208446     -4.51327512530181
  H   5.49492460132568      1.68487100635276     -5.40738294031757
  H   6.40490699501223      3.99547609367881     -2.55870182387837
  H   6.23811004953492      3.94901012448226     -4.32662899719346
  H   8.41054945037811      2.70206918761465     -2.75210630152089
  H   7.61002914678260      2.11941260777335     -5.50117403132694
  H   9.00801384695081      1.67340734302520     -4.79164479742252
  H   6.88323651037118      1.00654891337482     -1.95723218465824
  H   6.82882732996250      0.33189305180392     -3.59795878811573
