31
Coordinates from ORCA-job 24194optt
  C   0.86083466953057     -0.68797069799813     -1.66090727258402
  C   1.94252735697118     -0.21645390863483     -0.68617924173246
  C   3.02040014364643     -1.30389796155238     -0.50569823357440
  C   2.46123063953109     -2.45788175071907      0.28386667529015
  O   2.33130216196090     -3.57257168439164     -0.13781039927748
  C   2.55029502694777      1.09465493525298     -1.13952117177540
  C   2.39993045172488      2.22917834160372     -0.42858387979523
  N   1.71932913610794      2.31263496062342      0.79744734922852
  C   2.20053669657644      1.76934068227424      1.99257744056103
  C   1.33971008761077      2.10271108850320      3.17530192439154
  N   3.22826022449730      1.03936794858548      2.11437388956223
  S   3.06547647106310      3.77128973118075     -0.90598919948790
  C   3.78413886402989      3.53787011136047     -2.51442180016463
  N   4.27885186862953      4.50442275324054     -3.16344356467058
  C   3.80226008270483      2.16070893305811     -3.01930443889636
  Cl  4.57353613745024      1.94832423022598     -4.54438693127108
  C   3.26723820777288      1.09769192183607     -2.39440081187641
  H   0.42059892680239     -1.62642363548547     -1.32084730720117
  H   1.27710018357221     -0.86154482739353     -2.65505345656835
  H   0.06928998552753      0.05607017113283     -1.74887397335183
  H   1.47689343067468     -0.04659763022766      0.28550125758621
  H   3.86668259753386     -0.90173572585703      0.05873194409014
  H   3.38039604782078     -1.67636189584472     -1.46575294388939
  H   2.14951684313698     -2.20239904488038      1.31704602098958
  H   1.07004882082840      3.07986084080246      0.89203629438824
  H   0.32505852918815      1.72996763851117      3.02528088116286
  H   1.28329202453941      3.18471652961609      3.31200049542569
  H   1.76715578621366      1.65193163921106      4.06492733717268
  H   3.72326086173427      0.93847325046387      1.22867194889835
  H   4.19527286572460      5.39670858876982     -2.68051444835371
  H   3.36257486994729      0.14391446673256     -2.89907438427681
