25
Coordinates from ORCA-job 24206optt
  Cl  8.84555180325315      5.44706588206044     -0.50185043348032
  C   8.38814988410069      3.79511266138779     -0.27902744120701
  C   9.33542390535218      2.76563081864355     -0.32282701764698
  C   10.75324351382455      2.99722824311673     -0.56209443301203
  C   11.66081616874529      2.04312932583232     -0.31538885861372
  C   11.25276070539540      0.69817044205856      0.23557798888633
  C   9.86571282329830      0.31999873977316     -0.26742727697230
  C   8.87549509577691      1.44675615615496     -0.13531048291720
  N   7.60591895773183      1.12848564269612      0.08959328957086
  C   6.74004152520483      2.13458093774155      0.13402657135195
  C   7.07203245476017      3.48320334995363     -0.04637962549122
  C   5.83626355365637      4.31678464861707      0.06281118659332
  C   4.77686713491424      3.27893852937834      0.32628634684096
  C   5.29809186617794      2.04683552301350      0.36806610485992
  C   13.05298150842084      2.30587287353384     -0.51160450560857
  N   14.17812142797106      2.48370290241852     -0.65987435927576
  H   11.06802628087133      3.96927749882639     -0.91738325119500
  H   11.26359371904775      0.75574671662533      1.32945998790732
  H   11.98099928444037     -0.06052471449095     -0.04766979820573
  H   9.47497541057092     -0.54945597805392      0.25784527710733
  H   9.92659901987869      0.05782468470338     -1.32974620941125
  H   5.64101543198255      4.88192085030951     -0.85351752583635
  H   5.90554302323599      5.04998523865773      0.87201834608150
  H   3.73483217736000      3.53011031038525      0.46151725487634
  H   4.77394332402861      1.11861871665721      0.53889886479761
