22
Coordinates from ORCA-job 2420optt
  Br  1.13686458508240     -0.38915046611416      0.26629823134090
  C   2.98641824902313     -0.12811503557248      0.20777854273276
  C   3.58424669660544      1.07413185389382      0.07780241263874
  C   2.96983764754523      2.38372478961683     -0.06622171477182
  C   3.71142268015428      3.50906325151494      0.09307674849420
  C   5.15110871451217      3.58064954375763      0.43760737581963
  C   5.83151388314335      2.29069270605237     -0.02334285018067
  C   6.23189952045009      2.36865510286171     -1.50423908252287
  O   6.10551519529857      3.35451017195994     -2.16417198051085
  C   5.03067799864610      1.01464051120540      0.13430485171975
  N   5.71613012961635     -0.07475428633408      0.23104713239380
  C   5.07407564659743     -1.29206992447455      0.29357759091194
  O   5.58276902699766     -2.35993810413190      0.33667951203295
  O   3.65994781755277     -1.26044127843011      0.31717406115552
  O   2.96492225517175      4.58918317617356     -0.09008328006118
  N   1.67718899983582      4.19906434961586     -0.38838497132418
  C   1.67700557379917      2.89997154583885     -0.37720748079612
  H   5.26616316719680      3.70995984506711      1.51582008494703
  H   5.61541735584628      4.43198864203602     -0.05970742976642
  H   6.77015421664814      2.12169115820160      0.51044012690800
  H   6.66295745207207      1.43585221929335     -1.90915133082139
  H   0.76076318820496      2.37769022796825     -0.59609655033974
