26
Coordinates from ORCA-job 24205optt
  C   2.14256596380597      0.28196928623046     -1.17846567316923
  N   2.85809768496242      0.16478353155905      0.07944651285902
  C   3.12912436272850     -1.22844008446269      0.51957616503179
  C   1.70553484369942     -1.79436214780946      0.81916988216636
  C   1.16462407984776     -1.80299465236445      2.21656805703010
  C   0.97971455018953     -0.58953272245957      1.35430358659290
  C   2.06938492161227      0.52618180115575      1.28586585591602
  C   3.12087920869203      0.21485716106270      2.31883216032922
  C   3.79308613114907     -0.90079870195875      1.83060707137146
  C   4.78606695707134     -1.45717544969448      2.60278676337306
  Cl  5.61727116627378     -2.86883032289219      2.05076283830228
  N   5.15127589178366     -0.95946968662583      3.77578528965597
  C   4.51223508288754      0.10106827098100      4.23866728383765
  C   3.46065440160105      0.73184182577592      3.55455760923947
  C   2.78683409922675      1.86145652165096      4.11960364503474
  N   2.24194867650796      2.76559750564239      4.56915558124032
  H   1.20049376532771     -0.27763329563744     -1.21237419905860
  H   2.78883740610817     -0.07610904476614     -1.97993065532776
  H   1.92947009607155      1.33467465348444     -1.36387692484960
  H   3.71401199463950     -1.80944861086786     -0.18712733889683
  H   1.25943593003875     -2.44468336990407      0.08100811192833
  H   0.27968227626151     -2.40348762731959      2.37999776710992
  H   1.83690208394324     -1.77631725087104      3.06323345056460
  H   -0.01561632526274     -0.33002637679843      1.02497536221415
  H   1.68319893035843      1.54162204614663      1.27606169599865
  H   4.83728582047485      0.48425674074272      5.19881010150602
