27
Coordinates from ORCA-job 24203optt
  C   1.31899253322529      0.01476195781483     -0.54001499145272
  C   2.57905121952728     -0.21671392241083      0.28111080365367
  N   2.41971322221750     -1.33992779632415      1.22165471861682
  C   3.03074448424003     -1.00540313386304      2.49727199194714
  C   3.15738846367762      0.49915205286628      2.42832707568848
  C   2.91858685527806      0.93225535653636      1.19847833020189
  C   2.94918217021129      2.34562776692311      0.71609880141908
  N   3.79819175971593      2.45227146016560     -0.47067382258269
  C   4.40757359299116     -1.60058687011252      2.72808683473302
  N   4.89769814339584     -1.48906272775360      3.95787501379040
  N   6.10807964322777     -1.94625150765851      4.20398823493397
  C   6.79648910350917     -2.51290877511408      3.23267707977394
  C   6.23699132211401     -2.62336809651110      1.95930108380154
  Cl  7.12975678502130     -3.38166231427528      0.69630250546016
  N   5.04461749156982     -2.16794220853258      1.69617141868190
  H   1.06198649029567     -0.88763990519507     -1.09528992451674
  H   1.47300799772502      0.82545848786244     -1.25416505072510
  H   0.48330522761522      0.25866932534376      0.11789832086309
  H   3.41875248772119     -0.37927765069690     -0.40713384403405
  H   2.79087679062772     -2.19954364688502      0.84028150682752
  H   2.41160870822259     -1.31789137568667      3.34391545466339
  H   3.43941227054384      1.09397640873972      3.28637347783077
  H   3.24761402426638      3.00070735142117      1.54240732930891
  H   1.93678353424510      2.63671822912386      0.42101192859755
  H   4.76087701828778      2.24068623414940     -0.23530243958620
  H   3.77774669599953      3.39180093117435     -0.84659785107444
  H   7.78597196452785     -2.88090563110152      3.46494601317869
