28
Coordinates from ORCA-job 24213optt
  C   1.03999153628001      0.64076348465301      0.41476760192856
  C   2.45275915152347      0.27074563417947      0.07316891118974
  N   3.38058568440028      1.23353771213957      0.11088743795530
  C   4.64004976571174      0.94079062216479     -0.17882275811315
  C   5.05882632850231     -0.34019213916052     -0.52558622146038
  Cl  6.72628658139377     -0.65265396327026     -0.87068072761054
  C   4.11386207261052     -1.34150196001167     -0.59746778409396
  C   2.79547206223850     -1.02569024131332     -0.28817503009154
  C   1.94835715298567     -2.23807871833703     -0.40793466286893
  C   2.33220021126082     -3.45547305462156      0.42318377277875
  C   3.52085939536437     -3.37642544914796      1.37444948335727
  C   4.75829267181999     -3.48862624959139      0.46195476503835
  N   5.12041204502713     -4.88928089605379      0.30593711514562
  C   4.27089436589539     -2.81719852049959     -0.85554618355140
  C   2.82084825000202     -3.32162366496860     -0.98891891294523
  H   1.01232638813212      1.64850633736582      0.82112333128666
  H   0.62056676667862     -0.05611869877760      1.14247248265862
  H   0.40545287195257      0.60597499560990     -0.47406513568113
  H   5.36077563283729      1.74945570196296     -0.13412400156669
  H   0.90966245724040     -2.14414490807292     -0.69311001515565
  H   1.52191279162036     -4.13431515961464      0.64965164445891
  H   3.51442307899594     -4.19535119519664      2.09176672695625
  H   3.53122599357928     -2.43925519896749      1.93298013476263
  H   5.62008014537891     -2.95974742949551      0.87249115254167
  H   5.88582557938631     -4.99546542343697     -0.35013230126506
  H   4.33334949385876     -5.41688129862740     -0.05951551381404
  H   4.92668955980059     -3.04279047687747     -1.69563387997514
  H   2.49801196552280     -3.95795984203317     -1.79912143186549
