28
Coordinates from ORCA-job 24218optt
  C   1.33909242753909      2.14978933061015      0.43361560841556
  C   2.83484368018604      2.15654063276065      0.61603973982715
  O   3.38776897275380      2.44578410288203      1.64493835566182
  N   3.54227042306614      1.79992140025791     -0.52410393703102
  C   4.91120998960806      1.74877390639574     -0.58911566350414
  N   5.46845452239128      1.35264813713211     -1.65855759859566
  C   6.86342199753048      1.35111999501696     -1.70827510413130
  N   7.57854514656045      2.15214246783884     -0.90788680206186
  C   8.89904261433101      2.13374615918105     -1.00917817544816
  N   9.64073421193493      2.96846208829608     -0.18402849946357
  C   9.20463975072509      3.92478822503962      0.72863801005334
  N   8.03785490830649      4.28421853684824      1.04061814013412
  C   9.59012458074027      1.31612928283522     -1.90821843254169
  C   8.86286176101064      0.47812908247237     -2.74141195706757
  N   9.44094677656916     -0.39621599826088     -3.62303547571668
  C   7.47139858141258      0.51981522455430     -2.62575339613717
  F   6.75256900996593     -0.28002698102561     -3.43065239525693
  H   0.86874911736628      2.38556968395164      1.38284166627508
  H   1.00095528634217      1.17293646561107      0.08521552237322
  H   1.05258781860161      2.89267881731041     -0.31237498594899
  H   3.04636100587601      1.53715404781196     -1.36369317404926
  H   5.42502612341181      2.05700586179045      0.31927425154959
  H   10.63890830858244      2.88718608891104     -0.27440719724807
  H   10.05590023537853      4.40342209504511      1.21391386851398
  H   7.34296945135175      3.75933553916040      0.51477174653170
  H   10.67128944757786      1.33513894469527     -1.95942127657808
  H   10.38952988911357     -0.21679038640858     -3.90355745968059
  H   8.84494396176645     -0.78440275071358     -4.33519537887480
