26
Coordinates from ORCA-job 24220optt
  C   2.51036657183332      0.66104684243975     -1.30662766486937
  C   3.55682008492953     -0.38738867797682     -0.98347736227618
  C   3.10812300444709     -1.64997967717878     -0.63956326247064
  O   1.79976333938830     -1.83525630330224     -0.38282011215929
  N   3.74092948372468     -2.83065264229932     -0.54983281848588
  C   5.01039900222921     -3.02320370270220     -0.70593638271639
  C   6.13255370215596     -2.16446815287430     -0.85658758538691
  C   7.33150842007566     -2.85411199326523     -0.88819816128350
  C   8.53941565818401     -2.17841233980848     -0.95325426624914
  F   9.69118101626176     -2.88209613782112     -0.97703269261747
  C   8.62037029275567     -0.81545385021701     -0.97697120769271
  N   9.77589387368428     -0.13458520726360     -1.01931158865455
  C   7.39623811081645      0.01218939358602     -0.94754534462283
  O   7.57860441528061      1.22985582355975     -0.97653937594285
  C   6.11979099690113     -0.70455560618900     -0.90547486650899
  C   4.92896643731958      0.03910244821489     -0.96151164696917
  O   5.09862095255155      1.35846135810277     -1.00596598114239
  H   1.62176571321141      0.20190557713426     -1.73966516532158
  H   2.86081722344140      1.34705513819274     -2.08022118473723
  H   2.19271663588582      1.25812138252995     -0.44290507291918
  H   1.33817997585606     -0.99618060113721     -0.29575427011682
  H   5.28110824652502     -4.07781593463195     -0.69148623903974
  H   7.34390826061372     -3.93445052758701     -0.84105101361940
  H   10.66018284201490     -0.60235158823244     -1.08678362590286
  H   9.69527553392119      0.87004487114422     -1.06621934356080
  H   4.25850020599158      1.82218010758240     -0.95226376473410
