28
Coordinates from ORCA-job 24222optt
  C   4.69147776814824      2.71027988071197     -5.05385329847048
  C   3.61832394771699      3.17535593255787     -4.11313734588238
  O   2.55152994103719      3.59516213449084     -4.47787197418114
  C   3.89398246615133      3.08609881883297     -2.62019672109353
  O   5.22634378842118      2.71673873724598     -2.37170384888194
  C   5.48129433064344      2.53585663121011     -0.99555625351895
  C   6.90344422166168      2.12422185078908     -0.80444362189460
  C   7.88945172327827      2.97090941106947     -0.31797309153462
  N   9.15217891571873      2.61658669972906     -0.14328970523864
  C   9.46357837652426      1.36014202238680     -0.46809476939088
  N   10.77156048819012      1.02077490972047     -0.27129582343782
  C   11.48467029220337     -0.18049971304791     -0.43555400728777
  N   10.79002390535687     -1.24526273416460     -0.88049554564710
  O   12.66426265897495     -0.18954764446263     -0.16478650935937
  N   8.60689042098526      0.45345399200559     -0.95422543185851
  C   7.37405254802771      0.85530531774924     -1.10722438739659
  F   6.52989970908903     -0.04625568941174     -1.58673184549105
  H   4.33844854434832      2.80121696854916     -6.07703945384811
  H   4.95949282621052      1.67765543516021     -4.82409530823875
  H   5.59459117084607      3.30294183066927     -4.90101339978320
  H   3.19507112277487      2.34887220592431     -2.20299271335743
  H   3.65694639849823      4.05840858193409     -2.17197496193450
  H   4.80331619314342      1.77366326128796     -0.59285088481631
  H   5.29785857373457      3.47007433204623     -0.45018648969791
  H   7.63541524096000      3.99325172310025     -0.05320802170629
  H   11.35005698877428      1.76646792923352      0.08819772508880
  H   9.81476237977867     -1.17441216672323     -1.12232155363528
  H   11.31207505880230     -2.09246065859437     -1.01508075750565
