30
Coordinates from ORCA-job 24238optt
  C   0.95239665523279      0.40738293140079      1.15156301300819
  C   2.47415095926044      0.46373324399118      1.14428666258204
  C   3.10161151457593     -0.91680210755292      0.91961348922890
  C   4.60280671080881     -0.88354157562204      0.95554514652792
  C   5.26988115865123     -0.93949051745765      2.15131228843936
  N   4.64357706147920     -1.10269148212608      3.37460062961360
  C   6.71546830324254     -0.89380887057882      2.18651813256398
  N   7.34149632847994     -0.79994110850483      0.97135412172638
  C   6.67305463525547     -0.73945571627902     -0.19810063308738
  F   7.46383768123257     -0.65838498063551     -1.26279712985755
  C   5.33046279275144     -0.76904480370775     -0.26454785939760
  N   7.33265525446266     -0.94211966712878      3.33914978866132
  C   8.69645630222842     -0.91093895618030      3.43974906286208
  N   9.54519753836154     -0.82362786648024      2.41937289036308
  S   11.10020405417663     -0.81602046656287      2.95236341751545
  C   10.67968581300154     -0.93083071490238      4.59911682401290
  C   9.33218265194558     -0.97494610262949      4.72430623573915
  H   0.51731541520741      1.39556076702503      1.30164476631425
  H   0.58974748531904     -0.24455889382583      1.94871680170607
  H   0.57395634304974      0.01459746353340      0.20600449665047
  H   2.83869146467481      0.88407050180069      2.08622658803281
  H   2.82262950389383      1.14015447854936      0.36000246269606
  H   2.76866371423848     -1.30275752926433     -0.04667268527766
  H   2.73455439417932     -1.61352104619361      1.67933572870288
  H   3.74462024461080     -0.66159448105455      3.47801044076589
  H   5.27392418792767     -0.95071353675595      4.15088955339352
  H   8.36749097323777     -0.77203199742993      1.00373045353519
  H   4.83316724370074     -0.72396539875283     -1.22178669125571
  H   11.42721684086157     -0.96230067565162      5.37565056079887
  H   8.78189677395199     -1.04941089102311      5.64884144343551
