24
Coordinates from ORCA-job 24234optt
  C   1.49322316775340      0.21563583700421     -0.08404288547713
  C   2.94871237617292      0.00039847222990      0.17944588182310
  N   3.73083788228720      1.01411361472185      0.46301655096746
  S   5.27318068928864      0.52698666375239      0.71335469449754
  C   4.92791745877533     -1.14862035156096      0.42931303079717
  N   5.78058830764883     -2.23386868652586      0.44769485802200
  C   7.01522310778197     -2.12554405478669      0.72146617994309
  N   7.67226125618248     -0.94089864751297      1.04250785880465
  C   8.91204835275170     -1.01073798784767      1.29408487717509
  O   9.68386266475964     -2.09955217000704      1.28813111404538
  N   9.12219359464147     -3.32671652212094      0.97469937867621
  C   7.88023003315129     -3.30963316967476      0.71630679573628
  F   7.34366668262959     -4.46595099643917      0.41968993910903
  C   3.58749463458509     -1.27018600282680      0.14743702371652
  C   2.89097173715535     -2.56815033209362     -0.14640175313940
  C   1.88764153036514     -2.89412231402077      0.86890622702110
  C   1.07093529770640     -3.13632155486386      1.71047257679555
  H   1.28546270313180      1.28122136595350     -0.14242492324989
  H   0.89267289144085     -0.22946353420648      0.71069272819672
  H   1.19511286399530     -0.26064852990876     -1.02025105510025
  H   9.49887753548902     -0.13679804564901      1.55546568487060
  H   3.63129935465115     -3.36685253242652     -0.20023422491641
  H   2.39831489749691     -2.51159815953139     -1.12170468744545
  H   0.34527098015844     -3.35669236165855      2.45637412913101
