31
Coordinates from ORCA-job 24245optt
  C   1.34533100782374      0.34498184379837      1.06587070357808
  C   2.76246679741688      0.20068694519982      0.59137244779104
  N   3.40808992413444      1.33453780763434      0.30375589774725
  C   4.65650650577089      1.28480559199401     -0.14513091399926
  C   5.37542310416632      2.55963231481781     -0.46533569108145
  C   5.29279330872568      0.06034688034774     -0.31359670924561
  F   6.54830985628094      0.04853010605523     -0.78580435554171
  C   4.67500788498813     -1.13561887779947     -0.01030372902475
  C   5.41436402088569     -2.43468709786561     -0.14737099055527
  C   6.39661891039960     -2.65055063819546      1.00668394580623
  C   5.71928812092111     -2.84275123033983      2.34524247718218
  C   6.69397540638953     -2.89927892117508      3.49429733902211
  O   7.86486023887095     -2.66626028749174      3.39404303851730
  O   7.13506490793252     -3.85890487370046      0.76490810812413
  C   8.22660130101698     -3.74853661204438      0.00251645151955
  O   8.59942437969772     -2.75126271238381     -0.53614867917984
  C   3.36599865464508     -1.04272210430929      0.45481472996233
  H   1.31469060737258      0.94441039074443      1.97623581152404
  H   0.88693848448557     -0.62270321952408      1.26248865183400
  H   0.75575003472442      0.86862735238445      0.31293319915871
  H   4.72644255611248      3.40162474942068     -0.24113411308594
  H   5.66138335852096      2.58832473269205     -1.51785227091737
  H   6.29443089112685      2.63945165987089      0.11720599143008
  H   5.99162019859201     -2.43730512426810     -1.07309254486594
  H   4.70909823002411     -3.26750109577122     -0.17502063170066
  H   7.10296516114433     -1.82082361252833      1.05269697904988
  H   5.12140587181891     -3.76014454795619      2.34849856919728
  H   5.02346311678902     -2.02037037242933      2.54394522323430
  H   6.25518593284662     -3.16429726040081      4.47520757130138
  H   8.72841862593607     -4.72118188684386     -0.06077340109277
  H   2.81708260043972     -1.94405989993273      0.70084689431067
