26
Coordinates from ORCA-job 24244optt
  C   0.81814375371149     -0.15466369298978      0.49723574495844
  C   2.27778371251288      0.08490762832067      0.20807858144988
  O   2.79043644321340      1.09149999388034      1.06488164780421
  C   4.17958885276187      0.91003959984456      1.07351104396909
  O   4.41921721440279     -0.47863461386380      0.91547672551491
  C   3.19418999602971     -1.09633129142953      0.55360676385287
  C   3.37653573974320     -2.12171006083798     -0.51565391431811
  C   2.95085041574800     -3.41070066965559     -0.38923176703184
  N   3.26694145567803     -4.09690267705666     -1.53717838312949
  C   3.90031175792009     -3.27548300681139     -2.40111658622758
  N   4.31319303476967     -3.77766282753619     -3.60253048773031
  C   4.96544508523826     -3.36941145123727     -4.54100871321447
  O   5.56106395565124     -3.16087366090346     -5.50439246382830
  O   5.11568326144017     -0.95941222784979     -3.59546683861866
  C   4.61338536898326     -0.92299283092016     -2.51745128478781
  F   4.58055997986703      0.24183294414957     -1.84801679953401
  C   3.98770379195932     -2.01855150856623     -1.81384320964351
  H   0.22652122643039      0.72419670368398      0.24560114473903
  H   0.67978949112727     -0.37838015051921      1.55564535228985
  H   0.45618824381254     -0.99716377003932     -0.09474530198243
  H   2.42629909064442      0.37568380315678     -0.83711659783078
  H   4.56821750809540      1.25017648432636      2.03295697628939
  H   4.65424199174985      1.44547246884186      0.24563742614140
  H   2.77832222335126     -1.60344325755916      1.43359107882953
  H   2.45968310665179     -3.89700292485987      0.43604437960322
  H   3.08470329850665     -5.06848900356872     -1.72651451756450
