26
Coordinates from ORCA-job 24242optt
  C   1.23826542491900      0.48684008786351     -0.53279372739594
  C   2.55167446324349      0.08236107637895      0.14596274788667
  N   2.52275271098302      0.07731782046519      1.60594892952192
  C   3.00572475218366     -1.27773878168677     -0.34410593118889
  C   4.01717395706621     -1.43266184033534     -1.21165993788176
  O   4.48284426714121     -2.63894828838696     -1.65786834733170
  C   3.92306671445808     -3.76493250730603     -1.18960486908112
  N   4.45969064670410     -4.89259757059813     -1.73652629410682
  C   2.89985654416571     -3.71428114776948     -0.31928406667523
  F   2.38248439755024     -4.87923917470654      0.11712464979434
  C   2.30664269244796     -2.48762890215916      0.14323114224706
  N   1.27796629898542     -2.40646164675565      0.90024244645061
  C   4.80901583615712     -0.37349392077969     -1.84328965513710
  N   4.38598693475467      0.78687388392438     -2.22712207746930
  O   5.46485751845776      1.38085509997744     -2.75157502459185
  N   6.52703014359084      0.53312272990545     -2.67933929869742
  N   6.15368075695230     -0.52523097255235     -2.14268349545791
  H   0.94629068879901      1.48008689523428     -0.18821223600235
  H   0.44772969800056     -0.21839919590467     -0.28049775098379
  H   1.35545632165384      0.52377817319817     -1.61744882868978
  H   3.31007280589073      0.80812160231485     -0.14128862710526
  H   1.76396707098353     -0.51351225212483      1.92851094959655
  H   2.36545764605567      1.01929346262432      1.94307592345823
  H   5.41738305945420     -4.81141515684140     -2.04219955719946
  H   4.22889859200027     -5.75395830322911     -1.26754947898418
  H   0.93103005740139     -3.33515117075039      1.13295241502450
