29
Coordinates from ORCA-job 24254optt
  C   4.37114644834932     -0.55435204881671     -1.07264515289714
  C   3.49053818753891     -1.19836674934082     -0.02953196299310
  O   2.88454460584627     -2.21735321095219     -0.24640085882586
  N   3.38358032716847     -0.58805255793701      1.22217825298792
  C   2.49995947471588     -1.21606107654520      2.20458640467236
  C   1.04272215866831     -1.14189936120144      1.83052161333403
  C   0.26026317683714     -2.28823743720665      1.74853263376301
  C   -1.09389186357912     -2.23250930408211      1.44485313413958
  C   -1.94105962325523     -3.48108591488491      1.40157933492786
  C   -2.78833028463752     -3.55997471223543      2.65130893732892
  O   -3.98600977100507     -3.58204391543659      2.65583275193556
  C   -1.67947257399892     -0.99002293981658      1.21319087077956
  C   -0.92318256907676      0.16875990861375      1.27169073722504
  C   0.41992103538754      0.06919359996897      1.57926345674406
  F   1.15145545689163      1.19542584006387      1.63334100028056
  C   4.10284349795648      0.53720960938807      1.59237051620161
  O   4.08346650035957      1.01396597751785      2.69264684976197
  H   4.30657038269247     -1.16636281279243     -1.96683353621417
  H   5.40896472881102     -0.50868537257499     -0.74221872300434
  H   4.03833482934541      0.45859602600260     -1.29934796606628
  H   2.68190285444766     -0.69831072897333      3.14463804875448
  H   2.78557522615460     -2.26155851303166      2.30910579172434
  H   0.73626984437642     -3.24976466152382      1.90601057318620
  H   -1.29851179106704     -4.36479982466416      1.37086884623032
  H   -2.60167035695004     -3.49301485240118      0.53504845487871
  H   -2.21645378375289     -3.56984876400658      3.60062291221599
  H   -2.73627693620319     -0.93171721856003      0.98056991410436
  H   -1.35457147525992      1.14375212545375      1.09043467321441
  H   4.70637229323857      0.95811888997498      0.78078249160999
