31
Coordinates from ORCA-job 24252optt
  C   2.40435320199076     -1.54866919998504      0.89731092786636
  C   2.36413577258117     -0.32855687865444     -0.00377863288203
  C   2.84097383588102     -0.62092833663412     -1.42659316788221
  N   2.34392060043078     -1.83674781930814     -2.03643368225020
  C   1.19349398342196     -1.85651378134487     -2.57373099498438
  N   0.23689125028115     -0.86740400836536     -2.56398395100253
  C   -1.04211851421456     -0.92767041814409     -3.13877650520997
  N   -1.91745068966236     -0.01230280276042     -3.00907814573854
  C   -1.30975807967467     -2.12984815485529     -3.90897411016029
  C   -0.36803560822273     -3.07261283288186     -3.93761814415525
  F   -0.49489474741657     -4.20502729334254     -4.61264886812977
  N   0.82238694913009     -2.99117194010527     -3.28631163904891
  O   1.04939952696627      0.22691467494168     -0.10396694680597
  C   0.56708971559795      0.82703805341240      1.05714513262835
  C   -0.89829874258064      1.06411001770836      1.10750524552651
  C   -0.27068095011009      0.02947783625770      2.00463215470532
  H   3.40227824839028     -1.98816881520342      0.87350683008250
  H   1.69635451973771     -2.29677796162757      0.54118097092796
  H   2.16297641585190     -1.28787695764950      1.92673759244098
  H   3.02166239447668      0.45241307444429      0.40013349202505
  H   3.92749863435765     -0.71217747754520     -1.38313300983128
  H   2.61511901143553      0.26201222883276     -2.03900720195163
  H   0.38678887773990     -0.14219347775109     -1.86979397225633
  H   -1.56809240162494      0.76950942565827     -2.45759433558328
  H   -2.25010232153257     -2.24229097318857     -4.42034890494686
  H   1.52031129443028     -3.71052683959566     -3.39073468677647
  H   1.23072081801886      1.58383359491565      1.46539975183876
  H   -1.47217096515362      0.69238350461408      0.26920804173633
  H   -1.25586957398319      1.98720027674939      1.53942790221769
  H   -0.43891823619004     -1.00528002977226      1.74262753082517
  H   -0.19096422035397      0.23585331118013      3.06269132677494
