28
Coordinates from ORCA-job 24257optt
  C   1.08848418010389      0.01759304438575      0.09832790372942
  C   2.52523710165569      0.07040506974593     -0.35705834575320
  O   2.96421381162514      1.42869608608758     -0.20518338529611
  C   4.22423780963773      1.72601616489738     -0.51136949366883
  C   4.68209386153933      2.98841813432894     -0.30952280359046
  C   6.05333757951178      3.29987425136775     -0.58079086220112
  N   6.71430933876856      4.37139769366152     -0.36485081402001
  N   6.78769177739040      2.21625677918473     -1.14309114232449
  C   8.18842051568070      2.41615128578780     -1.48409494074080
  O   9.00589461497039      1.63739171712002     -1.11772582260606
  C   8.50523451107274      3.61989081729216     -2.36510812749340
  N   9.41797734872218      3.22144971671931     -3.40991012495091
  C   9.01557482846873      2.27014685109428     -4.28297955508987
  O   7.90914577783135      1.78017059192296     -4.25016040963646
  C   6.19695119309551      1.00858347374107     -1.29900490036475
  F   6.95813966517745      0.08177647324747     -1.81525801151293
  N   4.99107122232766      0.71249829273275     -1.01991107436541
  H   0.71612767841772     -1.00308114293555      0.01226619018516
  H   0.46540739537872      0.66759820448226     -0.51484507171801
  H   1.00287591726858      0.33229465228045      1.13788883521370
  H   2.63402258027971     -0.22602082149559     -1.40034482222888
  H   3.16403063322100     -0.57733855257745      0.24411503361335
  H   4.03683092397614      3.74892131172056      0.10168021052843
  H   6.11442160597422      5.08711169771824      0.03123254814002
  H   8.95642283916530      4.38871254715581     -1.74502159334943
  H   7.58782320576416      4.01870946483691     -2.79136122322746
  H   10.38781529669451      3.48183698666214     -3.36643786652996
  H   9.77620678628061      1.99253920883475     -5.02648033074148
