31
Coordinates from ORCA-job 24256optt
  C   2.08074650020247     -0.94989918311100     -2.13757340696743
  C   1.73390695859974     -0.16262672414534     -0.88420303104227
  C   1.99387867305321     -1.02037149699869      0.42862119028859
  C   3.23079109575235     -0.23455859696254      0.83407923618585
  C   2.74693861159985      1.22411867493791      0.78796424090174
  C   2.56310049109773      1.19746838218156     -0.71734329295242
  C   4.04927277022512      1.23353845883283     -1.24819168406717
  C   5.25781391570522      1.15992638520552     -0.21914882772816
  C   5.48134194458385      0.28123049056315      1.08212188059391
  O   6.58157694327849      0.26454777104823      1.56099896777290
  N   4.39531898868258     -0.39831769535678      1.67680053774916
  C   4.45942032998211     -1.01302406423448      2.91184496900888
  O   3.51866872781613     -1.56785667225195      3.41015017092601
  C   1.55688088597365      1.59019495983119      1.65336861825194
  F   0.36074531486919      1.24361499918381      1.15689471342889
  F   1.65555288818112      1.04217592181502      2.86795208282268
  F   1.51748896419542      2.92258728395497      1.81961991408675
  H   1.36449393388936     -1.75796567049819     -2.28881339904149
  H   3.07248464512486     -1.40485256720263     -2.06558335787173
  H   2.06807362630201     -0.31497956522956     -3.02614083714547
  H   0.68405612743251      0.11901195091009     -0.92700545604100
  H   2.22112802514559     -2.05523244813486      0.17999014126535
  H   1.17348529426335     -0.99775183953363      1.14000281147061
  H   3.73938581944976     -0.38989210921359     -0.10071262242810
  H   3.51044672079209      1.92507443538170      1.11469689325299
  H   1.99704285036570      2.02715171301469     -1.13903166855544
  H   4.20207497239268      2.17518002192924     -1.77828309072509
  H   4.19648019923541      0.45462852470736     -1.99644990948320
  H   5.43889209471555      2.16331406305966      0.17335425252208
  H   6.15186423272495      0.93437643617199     -0.80111320152796
  H   5.45464745436786     -0.93981183985570      3.36613316504859
