31
Coordinates from ORCA-job 24265optt
  C   0.89167200397541      0.05015857879802     -2.72176734531518
  C   2.39857254242474      0.25916692988842     -2.67353478667076
  C   2.91426424596021      0.36430967346914     -1.23692204285689
  O   2.62060143302385     -0.78974976821670     -0.47807622232570
  C   4.39163809866214      0.62890634122122     -1.22213583475096
  C   5.01408321607478      1.77491469519082     -0.93446136149414
  F   4.32054759281743      2.87077621040086     -0.58802678891244
  C   6.43551343095271      1.86583029157872     -1.01060648687906
  C   7.16241885587000      0.79011622821606     -1.36565193244556
  C   6.49167892178218     -0.49078104680226     -1.63181046480825
  N   6.96911329925460     -1.62713663024498     -1.90225727726049
  O   5.11393550773243     -0.45633190143189     -1.57314914415783
  C   8.66747822780380      0.86552256149269     -1.49794622751226
  C   9.13204837619204      0.68230956554873     -2.93569935552176
  O   9.06785862033059      2.13359277120406     -0.99580054455771
  C   9.32497865289011     -0.14542019282582     -0.54511690335304
  O   10.10198316240720     -0.98577164557385     -0.89289996211599
  H   0.54486934814003     -0.03572383283323     -3.75116498023249
  H   0.36959718272891      0.88958265584012     -2.25907363350686
  H   0.61063095049032     -0.85533114623278     -2.18584445706318
  H   2.67558875549534      1.17232337741483     -3.20678250476672
  H   2.91820897262470     -0.56775539830596     -3.16652394867673
  H   2.41843787479482      1.19389982625380     -0.73100467445886
  H   3.14858693981611     -1.52131655221568     -0.82124559871567
  H   6.91698639886499      2.80899735360709     -0.78945978397764
  H   7.98131045344698     -1.63946449895807     -1.94179418739381
  H   8.76609526337903      1.51994653875967     -3.52823432108213
  H   8.75904804949169     -0.24357573582324     -3.36858477540840
  H   10.22209768381573      0.65005541014299     -2.97271687558456
  H   9.97974199406124      2.29261632294652     -1.26246324630766
  H   9.06541394469575      0.01633301749067      0.51775566811277
