32
Coordinates from ORCA-job 24268optt
  C   1.02502032008443      0.10351343195873     -0.17735682039338
  C   2.54827221238921      0.04369794964507      0.00330339741123
  C   3.21764171534825     -0.46014880472681     -1.29415228482429
  N   2.78066848206628      0.28022731523798     -2.47794743028525
  C   3.06944888310849      1.46558663673772      0.25176906350772
  O   2.46739173339300      2.12449875306761      1.35146839922181
  C   2.93342019209294     -0.88039636761573      1.13497148032564
  C   3.67977191421293     -0.57292611575118      2.24985968240942
  C   3.89454169070686     -1.71842461506604      3.07966461813038
  C   3.25649244212443     -2.77292716413651      2.48310961730507
  C   2.61840926143270     -2.28223146188351      1.24686824403626
  C   1.88262793492676     -3.14533861742001      0.49382412445121
  N   1.74894760637043     -4.44460844855938      0.87288479605100
  C   2.34979784531422     -4.94978320526739      1.98738907711837
  O   2.12494270294904     -6.26687934175897      2.19040024721300
  C   3.09789748067107     -4.13995420909944      2.77433829289911
  F   3.68196428959778     -4.70899819173937      3.84889064825051
  H   0.75549153281053      0.86522463585160     -0.91369195740068
  H   0.54039412435341      0.34029066387286      0.77023483409478
  H   0.61680643094798     -0.84958376433643     -0.51789249881472
  H   3.05015354035857     -1.53965112903827     -1.37970300452824
  H   4.29664744380205     -0.32379092362945     -1.18774783302543
  H   1.85649996779117     -0.01225352171883     -2.77046759618587
  H   3.40501467481814      0.11188760331173     -3.25605637239987
  H   2.94079674940581      2.04263620011669     -0.66711115949654
  H   4.13715981236721      1.42211269700686      0.47331023998962
  H   1.56992434820350      2.37076560556513      1.11362798139284
  H   4.04138290289528      0.41732529422814      2.48734349110325
  H   4.45168436916432     -1.74134707881472      4.00215587806533
  H   1.36890703194043     -2.88153181834917     -0.41825220051301
  H   1.19685001969339     -5.08514160753965      0.32475434317474
  H   2.55603034465939     -6.52885040014925      3.01321070171599
