26
Coordinates from ORCA-job 24274optt
  C   2.88737605982222     -0.69133573713609     -0.40903309068847
  C   3.04503220294450      0.39213967479065      0.63663603687575
  O   2.49495715602101      1.59542385375821      0.16057330537435
  C   2.58800577540637      0.15610534673148      2.13439047832626
  C   3.61449442857311      1.28064537598054      2.50741220498293
  C   4.42760512892663      0.61752986936876      1.36130667202499
  O   5.46642255807265      1.25470634275421      0.71027487874938
  C   4.65233448594200     -0.76394770674043      1.94313920224371
  C   3.43571632704617     -1.04745049670549      2.43907463129009
  O   3.08112656853080     -2.21931213067052      2.96223227362405
  C   4.05553168405869     -3.14694144141767      2.97641569034777
  F   3.62525552207461     -4.26204783081341      3.53762409468947
  C   5.30802127801372     -3.00936514056138      2.50058732202464
  N   6.23991335643664     -4.02635455556063      2.47537607604242
  C   5.70507298212445     -1.72451757958662      1.89152707937343
  O   6.82020027200105     -1.55544108599622      1.40813038999231
  H   3.47696267091093     -0.42493022668032     -1.28932112786796
  H   1.84151500636248     -0.74931434258001     -0.70955798890067
  H   3.21647598037381     -1.67113168000824     -0.06807525605919
  H   3.10543749901559      1.96587895905647     -0.48856554786092
  H   1.54449945737839      0.18189892202930      2.42679872231234
  H   4.05009790658928      1.23377542403493      3.50283492450328
  H   3.24750553444822      2.27026139363691      2.25803411094153
  H   6.21916165845158      0.64946059054290      0.65243764615363
  H   6.18715429350150     -4.71451809006413      3.20900867924136
  H   7.17112420697354     -3.67721770816318      2.29073859226348
