30
Coordinates from ORCA-job 24282optt
  C   0.92894011223790     -0.12589084739495     -0.66574714534165
  C   2.37746357925176      0.11331292608955     -0.27631189474435
  N   3.16085483537169     -1.08845843033586     -0.54995004325992
  C   4.47027200755588     -1.02611763322662     -0.98281871473369
  N   5.38797302331081     -0.23823861364967     -0.58622780096989
  C   5.17129321906839      0.59605105261380      0.57770118509202
  C   4.81955235011973     -2.03710926954968     -2.00529692191186
  C   6.05661187936651     -2.24343624742319     -2.51347412401182
  O   6.08873103801385     -3.24283320171485     -3.43309604871405
  C   4.82187291234780     -3.71578662230840     -3.51619868033875
  C   3.98074394262524     -3.01112730422802     -2.66328785630179
  N   2.67041575217295     -3.27460076404987     -2.54397801389671
  C   2.18783959255367     -4.26630158194463     -3.27027438339381
  N   0.86401829322597     -4.61068470775489     -3.13865106707766
  C   3.00999314069193     -5.01397613797827     -4.14434424467057
  F   2.41879544676695     -6.00496126448690     -4.83538633615498
  C   4.34602847493052     -4.75806770363656     -4.29771699926896
  H   0.32268166976472      0.75184165312804     -0.44435024815916
  H   0.51816368884823     -0.97117096047561     -0.11053638668324
  H   0.84801654748342     -0.34382484771048     -1.73206944335896
  H   2.43312543946486      0.38902638882516      0.77823107460923
  H   2.78387587743943      0.94914589859982     -0.85149383543860
  H   2.62296541447971     -1.81842059882052     -1.00026308228206
  H   6.14142223411474      0.83159357507557      1.01389840096143
  H   4.56557635488949      0.09183895600696      1.33804614034739
  H   4.68791828740991      1.54608163509854      0.33428914614152
  H   6.98945809049838     -1.74880052062807     -2.30652767535166
  H   0.28200562343997     -3.90330500135226     -2.72036607245498
  H   0.44965588270322     -5.12963730799098     -3.89490853396080
  H   4.96073528985234     -5.33914251877714     -4.97089039467164
