29
Coordinates from ORCA-job 2428optt
  Br  1.90578490969289      0.46252922872957      0.95033953262440
  C   3.51039792280943      0.16214856628569      0.01228986856215
  C   4.16309238637777     -1.02885178327450      0.05354881711573
  C   3.87195594750323     -2.29086883219391      0.81331436347256
  C   4.85980054610823     -3.29814732992714      0.18159877395645
  C   5.94406651771688     -2.46663235179587     -0.52292689032991
  C   7.26744703400718     -2.28313506299648      0.24399763013523
  C   7.05179644189739     -1.42770976366074      1.47120549758371
  O   7.28877044613413     -0.24636974581053      1.44956879285955
  C   6.41157449986102     -2.01870953254767      2.72727281925235
  N   5.08255966444300     -1.47856838101386      2.96033710555586
  C   3.95179491331430     -2.14070830245636      2.35457878246154
  N   5.27387281843031     -1.17523828185449     -0.70271449181421
  C   5.81021216807309     -0.17805493133719     -1.53801953839213
  O   6.79275529230166     -0.42359661892729     -2.19708360408052
  N   5.13442070880426      1.02775761514619     -1.53778763865912
  C   4.07023093045220      1.17206533540432     -0.81389298013004
  H   2.84142069206452     -2.58748652680659      0.60241234286019
  H   4.33841719406949     -3.90077533231670     -0.56079390528929
  H   5.28000276225775     -3.98179843588665      0.91753932532277
  H   6.18748403259318     -2.85898536205078     -1.50878272266836
  H   7.97409300028267     -1.77161045782437     -0.40731183168641
  H   7.64905435778025     -3.27093523453026      0.51027914159472
  H   6.35421629193907     -3.10729169655108      2.69072341698302
  H   7.05959276751897     -1.74258259461542      3.56282332821641
  H   5.07361308606865     -0.47530620868322      2.81795849106048
  H   3.06034818678510     -1.60929727200463      2.68673219496820
  H   3.88619376426274     -3.15304954376669      2.76499224819971
  H   3.57403071645056      2.13920883726671     -0.85219886973505
