32
Coordinates from ORCA-job 24298optt
  C   0.96358041553076      0.02023542170815     -0.18105195765724
  C   2.44300522850004     -0.03294064392465      0.19390545628746
  C   3.34599493576948      0.02851592635208     -1.04330646182840
  N   3.15381653586292     -1.16505346916892     -1.86023650630109
  C   2.81391849316612      1.06983441567542      1.14435337632923
  N   3.31420948096924      0.85176379708637      2.27674860781663
  C   3.67823637163719      1.94313678904271      3.16065827492804
  C   3.40366094940204      3.30233658273940      2.58101235858810
  C   3.67750140227764      4.47265585052078      3.25741067986313
  F   4.21686341522820      4.41007454859148      4.49628395638917
  C   3.41967074051653      5.72448393872710      2.72685754547200
  O   3.69914912286482      6.86230675574426      3.41139212624162
  C   2.85986927641358      5.79604637646620      1.45815622321611
  C   2.56615419914808      4.64880099115706      0.73348028795524
  C   1.96373054440078      4.70318635968868     -0.64073767055301
  C   2.84874805590500      3.41830748400410      1.31958562409015
  O   2.54894115703424      2.29273787422865      0.58722562010282
  H   0.73460191875815     -0.79113791112348     -0.86928926729760
  H   0.72933965143835      0.96561470621507     -0.67228341893659
  H   0.33252794766769     -0.07447175636195      0.70309646338684
  H   2.65579056815824     -0.95969592723970      0.73000673660897
  H   4.38443298598726      0.17042334520779     -0.71741900971890
  H   3.06996857808917      0.90012830753400     -1.64057775420714
  H   3.53716876444605     -1.97955471977802     -1.39458065029415
  H   3.63160749850166     -1.07769392713284     -2.74791714014715
  H   4.73806696716293      1.84455519589206      3.40980246499809
  H   3.13954534400055      1.81787004439096      4.10356423690557
  H   4.07498100085956      6.63441439008694      4.26945758848892
  H   2.65724342208038      6.77455559897619      1.04149826855478
  H   1.75652936614415      5.73173213523398     -0.92972182753200
  H   1.03422975425178      4.13342846448430     -0.67959184535852
  H   2.63791590782737      4.26340305497578     -1.37778238639109
