34
Coordinates from ORCA-job 24292optt
  C   4.00097084893704      1.67240678021428     -1.86035989479294
  C   3.09269858315268      0.74837206902107     -1.06183413855727
  C   2.94869635506534      1.13435452343972      0.41833638758448
  C   1.99499954360222      0.17585986214720      1.16731781151065
  C   1.13598084901738      0.83951755818291      2.26707370913429
  C   1.76396775965922      0.43295925770905      3.60766254164130
  C   2.27240073620597     -0.97638160852953      3.32619900203162
  C   2.88918745934611     -0.87081589971636      1.91894521543433
  N   3.01556161464809     -2.12182815981975      1.17284877417475
  C   4.22545776790271     -0.17198704749849      1.95329095791285
  C   5.36679967274756     -0.47913800917900      2.64871989435315
  F   5.45180939354708     -1.57835378106692      3.42583520940260
  C   6.47729404652501      0.35003248661333      2.57688191641149
  O   7.62128627399490      0.09196310145895      3.25560081793343
  C   6.37581634725041      1.48493015414265      1.78043475676799
  N   5.28685723237394      1.79804032080255      1.08254461053065
  C   4.24819022412616      0.97824549132531      1.16909604218233
  H   4.01269615888270      1.38395852133193     -2.91205988789515
  H   5.02342735957169      1.64851279591099     -1.48692555435888
  H   3.65520464402056      2.70615962131726     -1.79703616882827
  H   3.45176816912384     -0.28367028938538     -1.11353752938542
  H   2.09077447727801      0.75227148291628     -1.50088701665953
  H   2.59904932854595      2.16879545646903      0.47676152462314
  H   1.36086015181711     -0.34568668985859      0.44871734659861
  H   0.11754673682951      0.44878997996261      2.21985828724653
  H   1.07011525445769      1.92031872403241      2.14315119222727
  H   1.05750760730558      0.47800981838785      4.43587850168165
  H   2.60164733286062      1.09029688177863      3.85322953244778
  H   1.42938099124002     -1.67308691564324      3.27827973725911
  H   2.98057940580078     -1.35582405082139      4.06360461082818
  H   2.11480492487487     -2.58783496372149      1.12946015360863
  H   3.65243863189928     -2.75301165338266      1.64891478135858
  H   7.52149997556459     -0.72438006818731      3.75830717613667
  H   7.22772414182532      2.15320424964609      1.72168969945538
