35
Coordinates from ORCA-job 24299optt
  C   1.79315402478246     -1.80623564126380     -3.03393236095932
  C   2.22924914042710     -0.59194471193089     -2.21947731252908
  C   1.01527425988982      0.25626217615683     -1.84080669469013
  O   0.22229749997874      0.65326710402065     -2.94235736192369
  C   2.96818394455062     -0.97788832568159     -0.93117726424004
  C   4.50868124676237     -1.05238103979365     -0.99242641485998
  C   5.09576524123190      0.34396955581283     -1.14818370288135
  O   4.98939672923357     -1.50486335725834      0.26463437149791
  C   4.99272365635534     -2.00030537795053     -2.08507221324763
  C   5.63743922654846     -1.59415386928015     -3.19771011340376
  N   6.10074809177726     -2.43242430384314     -4.19054104749544
  C   5.87463405243160     -3.66395022508028     -4.01261046515744
  F   6.31063077905487     -4.53066874570550     -4.91510358919244
  N   5.22546403337682     -4.23885914169562     -2.97070330939372
  C   4.99593230644820     -5.67537008571892     -2.89798254533161
  C   4.75420561078468     -3.43051826167748     -1.91236700803929
  N   4.16425175996875     -3.90344853402502     -0.88053355118299
  H   1.21923094490588     -1.50056870980419     -3.90820936358968
  H   1.15963003489303     -2.45441590919856     -2.42335370243301
  H   2.64831285087104     -2.39201867599250     -3.37311145963583
  H   2.88419296930731      0.02898334229383     -2.84506123841457
  H   1.34413972637493      1.12980500233356     -1.26597013421257
  H   0.35585479940900     -0.33151700241808     -1.19701751175084
  H   0.74602387516563      1.22477161503158     -3.51146954073102
  H   2.59456460727771     -1.94030079032289     -0.57741582644550
  H   2.75461606983430     -0.25016289090428     -0.14201070794557
  H   4.80969811214193      0.92454676082279     -0.27209939772101
  H   4.72803256310866      0.85463620510481     -2.03776341363171
  H   6.18398022083791      0.29710952034056     -1.18631329621663
  H   4.66603631705997     -2.41275904053323      0.37517469627684
  H   5.84130033587433     -0.54728229928579     -3.37418194233554
  H   5.37863254142912     -6.15184253944930     -3.79139718238810
  H   3.92516603465375     -5.86634575093663     -2.81717262879232
  H   5.50184712375549     -6.08658657299055     -2.02361058585546
  H   4.06170926949736     -4.91053947917650     -0.87966618114743
