35
Coordinates from ORCA-job 24293optt
  C   0.97812552518474     -2.29748513710566     -0.41793400291822
  C   2.49281712223797     -2.30466015537720     -0.58313045250826
  C   3.08643323859870     -0.89856626502018     -0.74332158816800
  N   2.77322205625814      0.02367880658934      0.35064251242110
  C   4.60524604050708     -0.96420811878398     -0.96324857686278
  C   5.34256803023039     -1.36125010555300      0.34113675791316
  C   5.91087189291932     -0.06407543248413      0.82483722706306
  C   5.89486280963128      0.89193529229500     -0.12294258056977
  C   5.25866276424211      0.39248412514386     -1.39615280906945
  C   4.31602831240795      1.36678443025972     -2.10157036082499
  N   3.88859750138839      0.78387424239248     -3.37483399009571
  C   6.56761227946055      2.16286382796878      0.12195908359368
  N   6.87399124775759      3.11102562103462     -0.67938425299966
  N   6.93858079357880      2.30942083604411      1.45354885404083
  N   6.93590364542268      1.38094719557127      2.41632040500345
  C   6.46321668519800      0.24345225409341      2.10330606636852
  F   6.45232585318989     -0.70201395685172      3.04654524297404
  H   0.58231975467884     -3.31222635973062     -0.38245225711878
  H   0.49674643203903     -1.77999103504173     -1.25067039209734
  H   0.67982456846370     -1.79968800276637      0.50597069399794
  H   2.75912026271283     -2.89205800924155     -1.46631270477470
  H   2.94704231375174     -2.80855907722939      0.27564413911859
  H   2.64986450589735     -0.47526821700320     -1.65090208557007
  H   3.05395198366264     -0.35868214556730      1.24823360713806
  H   1.77533314261222      0.18724790264311      0.40533077899412
  H   4.77696942265492     -1.71036278307607     -1.73830452010522
  H   6.15745130782920     -2.06476341683906      0.14985338815188
  H   4.69710663289663     -1.83796138127475      1.08014802604478
  H   6.07187448373714      0.17226365473054     -2.10375529143165
  H   4.80312112989371      2.33793315544665     -2.22336082305299
  H   3.44195411393357      1.53470649231739     -1.47409604311887
  H   4.67413121515583      0.70783763098018     -4.01143546985000
  H   3.20158737386892      1.37430458044139     -3.82744313373613
  H   6.55298737040966      2.91896508197582     -1.61933222904185
  H   7.39354818758841      3.17609446901823      1.69710678109125
