27
Coordinates from ORCA-job 24307optt
  C   0.82669022853119      0.07606239244726     -0.16884278168344
  C   2.21507538601741      0.31374896590739     -0.68924294272206
  C   3.03164431893172      1.35447232096590     -0.37143538910310
  C   2.40502111580479      2.48348386835621      0.42957732486763
  O   2.60288144740605      2.38876965437458      1.83113991020724
  C   4.53871530217827      1.45586736627305     -0.60644604378892
  C   5.42215954707886      0.72203244756732     -1.49005295106684
  C   6.80110462175439      0.91821044238210     -1.40697849079366
  O   7.71186900612958      0.26549563102757     -2.12330942540405
  C   7.26504012835559      1.90220887375189     -0.51313598612925
  F   8.56799180560807      2.14351040541167     -0.48866947359539
  N   6.50399376934420      2.58013428026490      0.26952414099915
  C   5.18176396861536      2.35137845183437      0.24207211571039
  C   4.97319495960918     -0.29921909687019     -2.51054114469433
  O   5.71242460619306     -1.09753489886970     -3.04127005974206
  C   3.51626662697898     -0.13404155082284     -2.57902639417130
  C   2.85966407474191     -0.67801976832657     -1.55082733848586
  H   0.57803747723972      0.64731789202966      0.72262332312553
  H   0.71700368170131     -0.98496553845771      0.06430479928566
  H   0.08555974716287      0.30183798732393     -0.93988188131377
  H   1.33955714836688      2.52769196806160      0.19945377804742
  H   2.82854209592704      3.43980505793237      0.12565937317032
  H   2.44057093958630      1.48167526446258      2.10852531826784
  H   7.25764513828477     -0.43697164439077     -2.63251910610314
  H   4.62798390909537      2.90728974424941      0.98165768612314
  H   3.22111982051497      0.87126014177388     -2.86463176794125
  H   3.11847912884210     -1.65750065865986     -1.15572659306588
