31
Coordinates from ORCA-job 24304optt
  C   0.89368871688068     -0.23677355499908      0.08617264357311
  C   2.40353917174311     -0.20047452959676     -0.06773499779529
  C   3.06902261588100      0.99941283240187      0.60695604543308
  C   4.53874348766069      0.58163642614784      0.76249262727769
  C   5.43952370248557      1.15850608869416     -0.32170550500430
  C   5.71332855264794      2.62118869128139     -0.13579788506754
  O   5.26970590238590      3.29750038909767      0.75541572692649
  C   6.64350179658755      3.29975545960056     -1.14846812286087
  O   7.12801298130645      2.71589628131452     -2.07209118001378
  N   4.51788771878625     -0.88995901904915      0.66889369398128
  C   3.13770279279391     -1.37036307394003      0.59194238809389
  C   3.08340687423532     -2.65653542012607     -0.24230865417128
  O   3.84271521820648     -2.54378635217624     -1.40545762311429
  C   3.55886099481852     -3.86199843045032      0.56400941743524
  F   2.80182878202457     -4.03570950035593      1.65872162850019
  F   3.50593698487987     -4.98751843825474     -0.14316305257737
  F   4.82701138880208     -3.71416181473919      0.98199327427465
  H   0.43899158001091      0.63862061441318     -0.37905738300158
  H   0.61395731290132     -0.23844516679014      1.14204977723413
  H   0.45787758465906     -1.12050602950574     -0.38217881847186
  H   2.66528276317287     -0.20857496851687     -1.13109281388047
  H   2.61860244930436      1.15625384097308      1.59005475892118
  H   2.95484889759312      1.92592884634083      0.04468990803513
  H   4.92209853533725      0.90667099326977      1.73139005751449
  H   5.00908247569876      1.00767587210165     -1.31863702836854
  H   6.40281062312173      0.63940646989943     -0.35140322987102
  H   6.82290328480726      4.37033975562061     -0.94215928698083
  H   5.05323775385255     -1.33973645833614      1.39790178778674
  H   2.69446824637206     -1.56156777207303      1.57774783799784
  H   2.04796132805192     -2.87383537472312     -0.51919270925177
  H   4.60645948299084     -1.99384665752403     -1.16298328255434
