27
Coordinates from ORCA-job 24318optt
  C   2.59779049954539     -0.30146277590771     -1.04206303436552
  C   2.55147880808383     -0.09264987537162      0.47041784444549
  C   3.33435325213790     -1.13311016428857      1.21658836277425
  N   4.37609199355628     -0.78880777675245      1.87962328756090
  S   5.18447008373049     -1.87716360760536      2.83538062134684
  C   4.04135923114151     -3.21045930363823      3.00925511384345
  N   3.92950820556311     -3.95650444822620      4.01979530176267
  C   3.24404361199119     -3.40837316566606      1.76832098971383
  N   2.90282510355495     -2.44063868457690      1.01559432575014
  C   2.82513386870952     -4.82273786453341      1.31938280332179
  C   2.74932310564609     -4.88395462719611     -0.21742494444282
  C   3.77713622813113     -5.83265802667865      1.78719741965447
  C   4.59858182530207     -6.64794962121424      2.08475133894050
  C   1.41548401268549     -5.12920344729776      1.86792618984582
  F   0.53211858973301     -4.23117146195562      1.41639542163085
  F   1.00114531235720     -6.32970057540830      1.45525431398126
  F   1.36392010762938     -5.11382556600799      3.19314843277476
  H   1.99356455362607      0.45210725368187     -1.54631533811343
  H   2.21220610528417     -1.28552888946635     -1.30538378091427
  H   3.62068061531150     -0.22151899004661     -1.41096324236161
  H   1.51531535335483     -0.15207800999098      0.81523101653345
  H   2.94230600676029      0.88495109950738      0.74680300841470
  H   4.53103797081321     -3.66102825787445      4.78954709621425
  H   3.72611677057694     -4.63886910261733     -0.62846673105201
  H   2.01861019573094     -4.17006185642472     -0.58652905160455
  H   2.47800729755927     -5.89236660464072     -0.52082650739198
  H   5.32839129148418     -7.36123564980285      2.38535974173675
