33
Coordinates from ORCA-job 24317optt
  C   3.06101641944451     -0.97027043070519      0.50255286345568
  C   2.66609793307845      0.49747594630972      0.59571811765718
  C   3.05690266982013      1.30484612054594     -0.64114362899634
  O   2.51875545474718      0.80509534804422     -1.85356370193209
  C   1.12753553426240      0.55483218611613     -1.85086009220148
  C   2.55751648776886      2.75650288602771     -0.53401644998039
  O   1.76811155979653      3.14165462552936      0.27798573561174
  C   4.56250025405591      1.36013726172627     -0.79864256781751
  N   5.15044776079433      2.36248573307906     -0.15344411746988
  C   6.47178991784976      2.50067902649628     -0.18074543143251
  C   7.01186863093014      3.67248552626256      0.59147680950211
  O   8.41099396966822      3.69919164980096      0.51704339770585
  C   8.95701684963602      4.79427427693342      1.20980285286853
  C   7.29195339434208      1.62565907160475     -0.87899216239671
  C   6.69989443331564      0.57286551747829     -1.55662936926803
  C   5.32681270942766      0.44070566146359     -1.51091484155591
  F   4.76416530690407     -0.59468685872781     -2.13830029508343
  H   2.67117974557856     -1.52452214023863      1.35590467942513
  H   4.14539670855765     -1.09050288994429      0.49650157055394
  H   2.67731596981213     -1.42648975599359     -0.41061171435081
  H   3.14240258338707      0.97745346326643      1.45281701048797
  H   1.59217115493687      0.60877677637928      0.75154223430120
  H   0.85664141769771      0.34151807399576     -2.88220213759706
  H   0.55579240920964      1.41904404273833     -1.49978205738685
  H   0.87577329619525     -0.30935636155694     -1.23093338162445
  H   2.92428732522361      3.41139139821311     -1.34563142503518
  H   6.67710834456173      3.59519782208810      1.63421123075910
  H   6.58293132006232      4.59691347432545      0.18191163990918
  H   10.03812316455055      4.74368444082003      1.10391994112063
  H   8.69636028718877      4.75735665724204      2.27336161468240
  H   8.59686318706828      5.74188039377432      0.79396312524891
  H   8.36169352973348      1.77358473767179     -0.88060524191621
  H   7.28058027039443     -0.15086368076649     -2.11369420724471
