28
Coordinates from ORCA-job 24319optt
  C   3.00537201281933     -1.33369971368091      0.53331914890195
  C   2.50592258512901     -0.00935224525491     -0.03234113205587
  O   3.13533767429403      0.30255363306266     -1.25912611969545
  C   1.03502677179631     -0.10642502288999     -0.22924777047355
  N   -0.09120251535239     -0.23750926530653     -0.39221153875052
  C   2.80835608986680      1.16568106822062      0.89247422877715
  C   2.40619503762817      2.45305330828758      0.56722097911745
  F   1.69056403779724      2.67861811980653     -0.53048687102014
  C   2.74743740235003      3.51112328205490      1.38448806189864
  C   3.46785005052717      3.25141880767998      2.53930021335918
  C   3.88668607313210      4.38321408685656      3.42340479829702
  N   3.41437209542007      4.31061966211639      4.70906773431730
  N   4.65549652650876      5.32763479182134      3.06381183641936
  C   3.82031801798522      1.92828073113499      2.82067744361698
  C   4.60447093836216      1.53283257766898      4.05538069274713
  O   5.18183791895748      0.26472722619203      3.92680476576208
  N   3.49837619251928      0.93737362189682      1.99945639003175
  H   2.76689884801446     -2.13293279511126     -0.16858659505849
  H   2.53474232649671     -1.55147927309856      1.49019680535656
  H   4.08300503776505     -1.27167098275932      0.66823764269468
  H   2.91742999975512     -0.37433579639095     -1.91041820052992
  H   2.45217761858769      4.51808819307970      1.11739224441052
  H   2.54923962745106      3.82377292522138      4.87324422914462
  H   3.57915305655273      5.12879349448873      5.27579694039844
  H   4.98002912780215      5.19420660740282      2.11052602050232
  H   3.93488893035762      1.56565197584418      4.92358214953259
  H   5.39141336244268      2.26881173861482      4.23659679489837
  H   4.69760515503388     -0.19905075695857      3.23043910739979
