27
Coordinates from ORCA-job 24329optt
  C   0.88266689838563      0.17804518631637     -0.26511310484180
  C   2.30502672350638     -0.01045205881296      0.14829988257824
  C   3.10645058922440      0.88018655948385      0.79558324908868
  C   2.45597282864338      2.08844524455853      1.45599441996256
  O   3.08862768660341      2.43273581020914      2.67291287824871
  C   4.62426385763804      0.78099298762671      0.78621560175362
  C   5.29846491263855      1.99271443596504      0.73157833751052
  F   4.65214330582920      3.16143066507686      0.60694595006055
  C   6.68172010390904      2.08993212390352      0.73921605885587
  N   7.48394408203027      1.05615323388408      0.76181803975908
  C   6.92085048492884     -0.16370977828106      0.74628481618077
  N   7.80477821029726     -1.17936113249418      0.71655686860271
  C   5.50975223359143     -0.36929967196887      0.76374275694400
  C   5.04344198871281     -1.78703359904581      0.70281603230634
  O   5.72338174417821     -2.78319827490143      0.63339688726710
  C   3.56422390110646     -1.65761436060396      0.78132337745575
  N   2.98312498411508     -1.16370521510215     -0.23382519729519
  H   0.58194477133470      1.22197913025730     -0.28706367547313
  H   0.21241107967779     -0.37105984201005      0.40115463087836
  H   0.76315279295940     -0.24513619493298     -1.26291947932181
  H   1.40825760473470      1.84236969968425      1.64198752995920
  H   2.47966308262415      2.98293788324132      0.83863783110362
  H   3.03224644989763      1.68265323995358      3.27314831046152
  H   7.12633607497670      3.07975161862169      0.71824832638736
  H   8.77547476806492     -0.92645100139144      0.66075966831538
  H   7.49412662951003     -2.13362042831693      0.64566972702294
  H   3.18955221088155     -1.46568626092043      1.79663027622903
