26
Coordinates from ORCA-job 24337optt
  C   0.94267250394114     -0.05155626771761     -0.26388971140372
  C   2.42064542507830     -0.04396126525637     -0.01606217935501
  C   3.14339014575963     -1.14590462868520      0.25338486604026
  F   2.62427904762140     -2.34960856093447      0.34500713266211
  O   4.45212403350746     -1.19904781950433      0.46535693697099
  C   5.28408755663316     -0.07491873521272      0.43136107521579
  O   6.45592468333297     -0.23015220122727      0.59213420472436
  C   4.55796571197783      1.14493315596708      0.19082004920166
  C   3.22817775960096      1.13286015099249     -0.03230917414051
  C   2.78417940109497      2.54271546236225     -0.25792613487350
  O   1.67414784598492      2.95201999568091     -0.46460001785215
  N   3.94398021518490      3.30879190796142     -0.13940423466944
  C   3.94872632728417      4.68344977778995     -0.22609571195413
  O   4.94448592071179      5.34324490368986     -0.08996383434811
  C   5.15072546297498      2.51450114155537      0.07732221382153
  C   6.15385795423235      2.63422959773104     -1.08107360607301
  N   5.54338294446465      2.22040206405956     -2.33462783912058
  H   0.55236815993417     -1.06463437996965     -0.20728528066329
  H   0.72059869946332      0.36115590225665     -1.24765342493317
  H   0.42742154647381      0.57112922404823      0.46669466452192
  H   2.95157506684973      5.09651952938453     -0.42063208550114
  H   5.64197560366204      2.82997946396697      1.00124842329464
  H   7.03268156183298      2.04666875416111     -0.80142196673045
  H   6.45168637622068      3.67882616743880     -1.14635572944381
  H   5.70190586402276      1.23978025130135     -2.52638931273784
  H   5.90703418215490      2.74757640816002     -3.11563932265339
