32
Coordinates from ORCA-job 24341optt
  C   1.18703332225065     -0.50794241573318      0.51920633439410
  C   2.25318600582461      0.14294202268759      1.39899256297786
  C   2.05794563360844      1.66029323743227      1.36211756575088
  N   0.70240013750345      2.03548372456759      1.73455582376095
  C   3.66595311889989     -0.29499992576462      0.96888608368285
  C   3.74286197430213     -1.75038867595222      1.45277322987314
  C   2.64201267566688     -1.83448098127478      2.55239781674116
  N   2.20840907148896     -0.43534764218333      2.76717487957993
  C   3.21269398937807      0.19202229330278      3.56781564086087
  C   3.07413511282769      0.36586435340451      4.94314063907881
  F   1.96250485370345     -0.05896575319979      5.55368159512204
  C   4.07312610755667      0.97618074889715      5.66270060881827
  N   5.19537036058979      1.42169766504507      5.09106721122783
  C   5.36686394248654      1.25804539384761      3.79213938065305
  N   6.55022619866929      1.67021288678118      3.21607431287136
  C   4.39412504114417      0.63057487393220      2.99615906088907
  O   4.63196668055959      0.51586015914236      1.65804732599064
  H   1.09379136440675      0.04876836006479     -0.41530469691885
  H   0.23034151056794     -0.49219094486675      1.04143679761273
  H   1.41962211162794     -1.53953600530380      0.26103557614454
  H   2.34685377452672      1.98545920607820      0.35249289906985
  H   2.73720923421605      2.15157430489079      2.05508026712495
  H   0.03657996632405      1.81905816758151      1.00393119535999
  H   0.63964432654355      3.02728765737700      1.91954034273804
  H   3.88105388342914     -0.16159880568573     -0.08927475680623
  H   4.73804240554493     -1.95045514688579      1.84741185063347
  H   3.56227950133249     -2.45086572089685      0.63819541362461
  H   3.00744536876522     -2.25171964056427      3.48791465988865
  H   1.78874773335992     -2.42823787605339      2.22961937376920
  H   3.96055140991935      1.11631846169216      6.73084173531663
  H   7.06403715694924      2.34403007565743      3.76093440811408
  H   6.52398602602637      1.83705594198231      2.22321486205546
