32
Coordinates from ORCA-job 24345optt
  C   1.33674892987494     -0.69708731016578     -0.08997122723740
  C   2.83112622690330     -0.40729078250349     -0.09790332290527
  C   3.24774802147302      0.36007876306203     -1.35672460998561
  C   4.71487557820319      0.61194927487961     -1.40072567675022
  C   5.31492416796746      1.81189187852159     -1.35748376142712
  F   4.57678888411928      2.93337807119513     -1.30593915739721
  C   6.74456355029986      1.98701429499260     -1.39762755123820
  N   7.38816929100607      3.09144537516185     -1.38902376381413
  C   7.48729210646915      0.71820220568721     -1.48034905196480
  N   8.85902196883944      0.85127762025537     -1.50384995303828
  C   6.80608360589994     -0.45367834823168     -1.49906943843473
  O   5.44645339297174     -0.50871676388422     -1.46927571585114
  C   7.39988720974322     -1.79330110755846     -1.57304981514658
  N   6.74278373552318     -2.84022563846738     -1.87531277680212
  C   7.70820719709984     -3.94297555343374     -1.88787919693650
  C   8.95181017694532     -3.40340880922697     -1.16241396476095
  N   8.77088253481442     -1.95721409809875     -1.33699320382830
  H   1.04765038251952     -1.25042465088075      0.80338659405422
  H   1.05314807826475     -1.29259164505275     -0.95962033929224
  H   0.75744189071659      0.22777889763377     -0.11480163722920
  H   3.39626668465221     -1.33973135026751     -0.05183356889823
  H   3.10685143072871      0.17751119632647      0.78291008676574
  H   2.72507906346076      1.31477961727291     -1.41180664735947
  H   2.97628102820003     -0.22304421600854     -2.24142355869213
  H   6.75411881431520      3.88532730488986     -1.33691846402035
  H   9.12534337133805      1.81905012083908     -1.64489409760607
  H   9.36516457385935      0.18178333586499     -2.06348959348165
  H   7.93373221391335     -4.19341776531653     -2.92867309360776
  H   7.28952816894092     -4.83034681080716     -1.41625823269716
  H   9.88839245085728     -3.74345384849902     -1.59956319610400
  H   8.93757388647286     -3.67040800758590     -0.10170985502835
  H   9.15906138360696     -1.35915125059384     -0.61871220928477
