33
Coordinates from ORCA-job 24357optt
  C   3.03361692144081      0.00102339194389      1.24421990051699
  C   2.50123018574369      0.26645722035735     -0.15971041941966
  C   3.02313119123385     -0.72414738194363     -1.22412211055375
  C   2.52070572278782     -2.13999252482853     -0.92306695811897
  N   2.54304403816382     -0.32701998248916     -2.56474778213156
  C   1.31051464778884      0.42332786970857     -2.71908001506884
  C   3.08881102507629     -0.90586021803860     -3.66877829167967
  O   2.68357906882769     -0.78135664504330     -4.80141874490873
  C   4.54320548717592     -0.65676500995791     -1.20233147377823
  C   5.28580627255737      0.39947122140674     -1.54061651547185
  F   4.69587578020579      1.51636629465924     -1.98215740307808
  C   6.74813650075598      0.42764486120709     -1.46058098654339
  N   7.47915290018553      1.42011764263531     -1.79145275686399
  C   7.29219105886604     -0.80650920909767     -0.93756180216206
  C   6.48925152041210     -1.83532975760691     -0.61393724020531
  N   6.88253489249567     -3.07590967705926     -0.17986727999314
  O   5.14119272339478     -1.79065353925517     -0.73581501881038
  H   2.68151170587428      0.77683116785631      1.92315110744395
  H   4.12478614224762      0.01350337075829      1.26956367379323
  H   2.69270652555484     -0.95653504764603      1.63700798864180
  H   2.77563063188840      1.27618304863076     -0.46702508114510
  H   1.41121891394817      0.21592639963354     -0.14677318383048
  H   1.43118698832632     -2.13329613246723     -0.97511183073913
  H   2.82310086205298     -2.48417440186188      0.06348933013427
  H   2.89793707320079     -2.84835100088253     -1.65971109219468
  H   1.40191877270153      1.41966393084614     -2.28889921483083
  H   0.46787071029765     -0.09235429364367     -2.25132291453954
  H   1.11935869027467      0.51018329288586     -3.78466801102862
  H   3.97617013131568     -1.51655151474863     -3.43732823250067
  H   6.90681138977208      2.19039875166050     -2.13265560776123
  H   8.36229120691584     -0.89230610093712     -0.81996624662854
  H   7.82652784583663     -3.13442788333179      0.16476559972729
  H   6.20499247268045     -3.57355814335056      0.37650861372889
