30
Coordinates from ORCA-job 24350optt
  C   1.39603822403829     -0.45326351372476     -0.69388324932103
  C   2.60023637729124     -0.40543592931691      0.23013358131614
  N   2.77268023851614      0.95606912914047      0.74196149492738
  C   3.31708473526172      1.11348882470415      1.86321787118797
  O   3.81140403326865      0.17514417251274      2.70735930372757
  C   3.75861849387253     -1.18422608327897      2.27388445912030
  C   2.51943777764106     -1.40552833669929      1.38588496635604
  N   1.26195221309528     -1.25335180138220      2.09837366011064
  C   5.05602024194605     -1.57547082938599      1.61420250395412
  C   5.45589662943814     -2.88039663680188      1.56340491801954
  N   4.73189294922655     -3.95851925025775      2.04735891160513
  N   6.62929077458761     -3.20256361965919      0.94650440928535
  C   7.52753727409395     -2.32220350850513      0.33658310277309
  O   8.54782012698938     -2.72870774582670     -0.17541033571093
  C   7.06275734863627     -0.95331359584762      0.40584407754942
  F   7.84841518616970     -0.03505467773748     -0.15363079210220
  C   5.90287025045752     -0.61071048082794      1.00006455796533
  H   1.54186119736506      0.24623376631464     -1.51582978508453
  H   0.48878335929636     -0.17922614376394     -0.15871964406257
  H   1.26564451526433     -1.45820013779952     -1.09801927566291
  H   3.49264142693823     -0.64779956656875     -0.35621105469737
  H   3.44621475583753      2.10245255232694      2.29378095040101
  H   3.63360595956954     -1.75257841206554      3.20214534103808
  H   2.57269715948629     -2.42039132845021      0.98108054988745
  H   1.09002784924480     -0.28102935913656      2.33090636013808
  H   1.24922031063895     -1.78066072623378      2.96290649801825
  H   3.95995863401768     -3.72075653836674      2.65011460819343
  H   5.28489127470540     -4.71071437767913      2.43319806499136
  H   6.89504257755887     -4.17467066916983      0.85925597315611
  H   5.63045810554682      0.43738482348686      1.01353797291974
