30
Coordinates from ORCA-job 24365optt
  C   2.24955996163618      0.18580170809104     -1.49052910896352
  C   3.02816266237840      0.51605720007032     -0.23705378942635
  C   3.23910177066720     -0.72352245956371      0.67095838684128
  C   4.72132953797100     -0.96806446018236      0.66529601091881
  N   5.32198807852753     -2.00420839220422      1.22847794052877
  C   6.64181638387894     -2.08606085596088      1.09806339990649
  C   7.42367770683644     -1.16937066177584      0.39261426528424
  N   8.78957803747391     -1.32977437173102      0.19968233689523
  C   6.74882726630949     -0.09829107759016     -0.18260323178240
  F   7.46463730421003      0.78455746631594     -0.89307922202080
  C   5.38939710174226      0.03223108406716     -0.03716034448576
  C   4.46102658337240      1.09407810387841     -0.52996301743511
  C   4.47836838196521      2.42592711471050      0.27983792740604
  C   3.28642402184677      2.23268290195497      1.23130023191117
  O   2.33573922348874      1.55110361220306      0.45231513100658
  C   5.71390696124823      2.73968130655189      0.97904703096214
  C   6.70659645667231      2.99823969598764      1.59797105640668
  H   2.76171306808358     -0.59909872682700     -2.04976302675474
  H   2.15634210319770      1.07015275399313     -2.12146121682908
  H   1.25173177474283     -0.16718909823284     -1.22846679830499
  H   2.69519768888436     -1.59364886731246      0.30010472555444
  H   2.86944931238850     -0.51799915416382      1.67788898715909
  H   7.12874815582242     -2.93747724169878      1.56418262005124
  H   9.25882531473419     -1.87342791751543      0.90671661839795
  H   9.28498683470575     -0.48167668732221     -0.02955616751187
  H   4.60747716091567      1.30464991935152     -1.58916400207263
  H   4.23626009324709      3.24261335665606     -0.40262884580088
  H   2.85535354998812      3.16898860204349      1.57873927759244
  H   3.59798669182578      1.63696092966284      2.09855346740751
  H   7.58879081123888      3.23308421654276      2.14367935715805
