23
Coordinates from ORCA-job 24363optt
  C   0.96608094323864     -0.53856427753101      0.46267974707589
  C   2.05444701616176     -1.15461126015941     -0.36414737712073
  C   3.34905442798808     -0.87661203976991     -0.15030718146955
  C   4.54100945121625     -1.31573545583683     -0.90719020614234
  C   5.02322764078181     -0.72592892948373     -1.99239332127185
  F   4.38406247307597      0.16354188968461     -2.71047299608265
  O   6.27317176929588     -0.91706913991934     -2.44722929505434
  N   7.23844712176973     -1.14267626314908     -1.44670959591390
  C   6.79679065758397     -1.83761159022118     -0.48752598364192
  F   7.62152385152736     -2.13734925885489      0.47935008952826
  N   5.48004556189029     -2.27786574522521     -0.34865229470356
  C   5.28844256003232     -3.69119490467627     -0.49900237827899
  O   6.11205305418658     -4.49283821048771     -0.18767684381331
  N   4.08727432436080     -3.90205867746364     -1.16658471503786
  C   2.98225682086064     -3.66423283786931     -0.61398015000140
  C   1.88571418433886     -3.18007549526944     -1.49470200717195
  N   1.52563999230681     -1.97183823840404     -1.39152123292273
  H   0.31523202240772      0.05543086116972     -0.18024954682124
  H   1.37347512283988      0.09320427431174      1.24834772219686
  H   0.34834606788894     -1.31895420798633      0.91190275947322
  H   3.55855675828054     -0.19964323559012      0.67283386033274
  H   2.86173893615060     -3.54924248437217      0.46589030098221
  H   1.49940924181642     -3.79807477289635     -2.30065935414087
