28
Coordinates from ORCA-job 24377optt
  C   0.93543488686133      0.11002348353975     -0.04106806920873
  C   2.46244619848392      0.07191683402092     -0.03732419896890
  C   3.00586573572603      1.38518187536656     -0.60799188602251
  N   2.95554179075910     -0.04467484537013      1.33374400608391
  C   2.94213329348912     -1.21753658758874      2.04158535099695
  N   2.39621104880913     -2.33291695963986      1.78575552903227
  C   3.69082273333112     -1.10038026609588      3.29499798286019
  N   4.29800308782562     -0.95979910377293      4.25523956839069
  C   3.00798638913682     -1.06419671045465     -0.91176268556587
  N   2.18329912988720     -1.63694114450532     -1.73679954694615
  C   2.61581725811377     -2.63441797162670     -2.59017178486591
  N   1.92859559715845     -3.24651717134656     -3.46319812165208
  N   3.96779694769940     -3.01784868950319     -2.46882975879801
  C   4.82937661760154     -2.43575846753740     -1.61290564315868
  O   6.09356830427281     -2.84143147076706     -1.54716353615990
  C   4.37625552805235     -1.42557189316500     -0.81958835759132
  F   5.23110560763258     -0.83714961293072      0.03367987028453
  H   0.61617210138673      0.95558615634985      0.56747779048361
  H   0.50279995369199     -0.79867088963851      0.37416111384931
  H   0.56042658194688      0.22464333276975     -1.05498036125495
  H   2.64717793201785      2.21969348181734     -0.00341588865758
  H   2.64495742172238      1.51517224480484     -1.62737412245104
  H   4.09663986705616      1.39245472410628     -0.61627836742263
  H   3.65256663822610      0.62611266208624      1.61874959693214
  H   1.90657794070609     -2.33691855776828      0.89355185958103
  H   0.97660122772549     -2.89487054984405     -3.45379214910379
  H   4.25688322139330     -3.76074748291366     -3.09010276391114
  H   6.26993695928665     -3.58143642039288     -2.13919542675542
