29
Coordinates from ORCA-job 24376optt
  C   3.13126072238096     -2.15455018169899     -1.93954495831209
  C   2.55280686162786     -1.12907182524607     -0.97679779727531
  O   1.14488485213115     -1.16728608195803     -0.96957451348907
  C   3.04282322213724     -1.33369838711965      0.47226627234225
  O   2.51703130165717     -2.53059391077141      0.99111727937519
  C   4.54808303340843     -1.29031577905421      0.52426842345788
  N   5.13060260333487     -0.15065628137788      0.42888144542299
  C   6.51106712283245     -0.08938810128563      0.41437694857716
  N   7.15849574229679     -1.35435508094759      0.51180200766862
  C   6.43036765676795     -2.47405526172880      0.59485558287470
  F   7.14952466434247     -3.57123779019925      0.65083948622503
  N   5.16126865031966     -2.53483789938851      0.61424138270543
  N   7.13798774203341      1.00201997192683      0.32243881831064
  C   8.57946779047513      0.98434804363242      0.31304272584164
  C   9.08329476536765      2.41484580255839      0.11633603669217
  C   10.54297997214782      2.46660813795037      0.10044169231909
  N   11.68851958043691      2.46608628285967      0.09381764367553
  H   2.67629082217116     -2.02266361893109     -2.91987839083036
  H   2.91806990540141     -3.16910569843169     -1.59603195876061
  H   4.21240659736185     -2.04361535845820     -2.04304825292086
  H   2.83661997809351     -0.12130215640056     -1.28436787398174
  H   0.88351893032190     -1.96938398732757     -0.49900321962872
  H   2.65546390089744     -0.50845872728630      1.07074054185878
  H   3.18654454231613     -3.22203415309341      0.90482971178605
  H   8.16612786489691     -1.42267161285077      0.51246119125613
  H   8.97814651743136      0.36052285288648     -0.49921362156670
  H   8.98496516961363      0.59351724936942      1.25623772725093
  H   8.70708790526148      3.04873546864778      0.91941458762411
  H   8.69729158253523      2.81159808372427     -0.82294891849886
