27
Coordinates from ORCA-job 2438optt
  Br  1.00346650312187     -0.02480392182750      0.18561367092002
  C   2.89004350285664      0.00500714227976      0.08356259557511
  C   3.54232269197610      1.19007766642201      0.07010799107180
  C   3.06885250428428      2.60760144808008      0.14337129496376
  C   3.48282082817249      3.13391580560579      1.55303087427413
  C   5.04612068353048      3.14462653553373      1.51459327448024
  C   5.36429818706728      2.62271298226769      0.09987445927812
  N   4.90552133402316      1.23747459646391      0.03882260713542
  C   5.74875236582048      0.12006898531868      0.05527851959603
  O   6.95684688182457      0.26824345349873      0.08480492721309
  C   5.03281514450164     -1.12670130787939      0.01722079220513
  C   3.66398752038947     -1.20755740490585      0.03957522339243
  N   2.97719588530675     -2.40211827972663      0.01664098654269
  C   3.51611586935924     -3.67011547795375      0.15254961615794
  N   2.89892912359796     -4.76530960021373      0.03842124853535
  C   4.19948017976405      3.28163189929036     -0.65545748441317
  O   4.17304593636229      4.11928099296208     -1.49454410897760
  H   2.04850898321086      2.79725938982778     -0.16582737698978
  H   3.08573238714254      2.49090497734026      2.33566354367333
  H   3.08195472112176      4.13632925267845      1.69387572933693
  H   5.49049866030854      2.49498055969910      2.26567834139176
  H   5.44232168039017      4.15055489936159      1.64522061187945
  H   6.37256112893504      2.73927256814826     -0.27688972987526
  H   5.65568147435659     -2.00485778518322     -0.04151940549972
  H   1.97455193601124     -2.34523514652638     -0.09065572652573
  H   4.57171443580752     -3.68240344898699      0.40517965873945
  H   1.91585945075688     -4.63684078157481     -0.20519213408091
