25
Coordinates from ORCA-job 24393optt
  C   1.00813599839664     -1.42385955443840      0.56449418432555
  C   2.45668245190705     -1.67026311391578      0.90197142763811
  O   3.05542149355281     -0.38150717665837      1.14231273176710
  C   4.34386501763929     -0.32793119663921      1.42921014015577
  C   4.93247197234051      0.87456795128010      1.68189703532746
  F   4.23881575411182      2.00054349285202      1.65761286135179
  C   6.32481983007361      0.98554922943519      2.00696274782471
  O   6.90744555156454      2.00812007682001      2.27459263253664
  N   6.99905792920760     -0.27619372137552      2.01809326399422
  C   8.41047291644509     -0.32556034961483      2.35904931681393
  O   8.83538957400740     -1.29399488212393      2.90940590467968
  C   9.30520115858811      0.83009928795844      1.95678325825074
  O   10.62010191586869      0.37970629966488      1.82576453923632
  C   6.31416465456614     -1.43317367223970      1.74457760458386
  N   5.06256757457403     -1.48539395030428      1.45721413046498
  C   7.02243270002391     -2.69477862451751      1.68308192631214
  N   7.48716834432135     -3.73328487279867      1.55517334185709
  H   0.51274147418400     -2.37717912981837      0.38162076412793
  H   0.92192474642414     -0.80924983942612     -0.33059694988489
  H   0.50068354534346     -0.91928812987546      1.38535482307040
  H   2.98845585948813     -2.16082843052876      0.08692524198114
  H   2.57001045143988     -2.28094375683279      1.79801035586685
  H   9.19499599534990      1.61307454246325      2.71240607809695
  H   8.97295896919143      1.25292345672594      1.00908195025521
  H   10.77801412139035     -0.31515393609214      2.47700068936627
