33
Coordinates from ORCA-job 24405optt
  C   0.84107009048660      0.11123848249540      0.29993679557550
  C   2.34610909704642      0.07295554938206      0.02825558399349
  C   2.60507617878551     -0.23507135244518     -1.44658074299208
  C   3.00714677746997      1.39373276005853      0.44693086428840
  C   2.63085359815700      2.59006864627071     -0.42271984908908
  N   3.07029924352519      3.84189374883433      0.19456955790675
  C   4.27405233176564      4.42095976588389     -0.10003419784354
  N   5.08012199857885      3.77365248329601     -1.00612048366740
  N   4.67956517402866      5.55646907125436      0.37930076787203
  C   3.84761509099498      6.19211846494987      1.25621693545672
  C   2.68229163957279      5.66287798915748      1.65500277488472
  F   1.89188847031741      6.26415085439515      2.55499139609929
  C   2.20365835458645      4.39932060458449      1.15000551032109
  N   1.12915549709917      3.78454370428212      1.46345397528110
  C   2.93550822519036     -1.05686214906839      0.90158800516269
  C   4.37336798089354     -1.22961077854603      0.70044709064283
  N   5.49978271776113     -1.32768110862497      0.51222842254408
  H   0.34959712142919      0.87721611663106     -0.29924356395066
  H   0.63697125343769      0.33408012082451      1.34855170564857
  H   0.38554672380898     -0.84934258609308      0.05009873464487
  H   2.11055625459726      0.49595123585998     -2.08759450960392
  H   2.21159284409641     -1.21984644506388     -1.70658288333440
  H   3.67393660460246     -0.22853483551697     -1.67319897225224
  H   4.09563102653570      1.26969341474655      0.43907664967342
  H   2.71405460690251      1.62509043492360      1.47393503374012
  H   1.55017900632771      2.66615472639857     -0.51827162560441
  H   3.06210524132502      2.53205648425753     -1.41979482372516
  H   5.10098860206699      2.76628462281126     -0.98251169155824
  H   5.99294735744541      4.20052302708864     -1.05427479017478
  H   4.18031742587462      7.14645473774954      1.64587268317604
  H   0.60825556787607      4.33077529833983      2.14293821007255
  H   2.44231491533110     -2.00336325053501      0.67009404669949
  H   2.75944298208312     -0.84294983858203      1.95843339011215
