29
Coordinates from ORCA-job 24404optt
  C   1.24987636081825      0.22255012725252      0.36653095466002
  C   2.73898819468807     -0.00486690176559      0.16757364381568
  N   3.06030797271943     -0.67108453018723     -1.10448053531558
  N   2.73654969957464     -1.98355810581487     -1.15116744003347
  C   3.03280564446858     -2.69722430043022     -2.17707168044151
  C   2.72511958260805     -4.16868002136118     -2.07773917511255
  C   3.93154721492897     -4.98720087266846     -1.66939084822146
  C   4.19165830468882     -5.20439332414104     -0.23285508597016
  N   3.73286115962724     -6.30386622096678     -1.08306028655881
  C   3.73686754801778     -2.18008221418322     -3.35053914294600
  N   4.32119859761179     -3.06107130709144     -4.23668777248354
  C   3.87356540524119     -0.85189131443445     -3.49307381923403
  F   4.51469428327636     -0.31882014353324     -4.53664870827538
  S   3.02267494471208      0.27344290233909     -2.47401136151265
  O   1.68274380600418      0.43240861553203     -2.94927310261524
  O   3.80255334705794      1.44283906917677     -2.22006884396295
  H   1.07112215677861      0.64378757606912      1.35602058385954
  H   0.71317081075600     -0.72304416321991      0.28868710238197
  H   0.85528274062997      0.90913291076118     -0.38146455875770
  H   3.14854558620920     -0.65331449227699      0.94029537430292
  H   3.29665986702834      0.93038376260017      0.17761742076506
  H   2.31507094932005     -4.53859390551359     -3.02340882503331
  H   1.94594473553807     -4.28720591972937     -1.32370501041602
  H   4.78686710039328     -4.93331709992241     -2.33414539707056
  H   3.49020863933980     -4.76289328728398      0.46512881107678
  H   5.20704787068056     -5.29974611276317      0.12712527690704
  H   2.74517455322534     -6.48204519332115     -0.93082323362309
  H   3.91746465497248     -3.98172186215397     -4.29082242960898
  H   4.58142826908486     -2.67592367096861     -5.13154191057604
