32
Coordinates from ORCA-job 24409optt
  C   4.52428868327980     -0.87885098949276      0.34179808119327
  C   5.38731223180523     -0.04373094931555     -0.58797171531090
  N   5.25617075851140      1.37723398029480     -0.32310945549094
  C   3.90572066342371      1.94631613697727     -0.36375040828965
  C   4.15520999516315      3.46480385392349     -0.41068751942040
  C   4.12983474870499      4.03896620226991      1.01370295812064
  O   5.21371522252951      4.70562039015054      1.42969354512850
  O   3.17310401198580      3.91523146621579      1.71807530288176
  C   5.49026338612184      3.52451176874431     -1.10527859777789
  C   6.14759133552533      4.57201795113062     -1.72610093445787
  C   7.40207501596373      4.31821735227087     -2.25449356634099
  F   8.05044021284369      5.31782146283920     -2.88936070498390
  C   8.01597891649509      3.07589803993981     -2.18540676654468
  C   9.37506784629352      2.89322234372153     -2.81561796712038
  N   9.98086323208944      1.62176554760912     -2.44117441678032
  C   7.34255318929885      2.03155832261467     -1.55329820719045
  C   6.08617453429405      2.26419898054353     -1.00733139453668
  H   4.71650946581743     -1.93816462058134      0.17422093826348
  H   3.46220687171175     -0.70315732481237      0.16989307034481
  H   4.74755843825090     -0.64382830517091      1.38282008363721
  H   5.13444156741233     -0.25975521288005     -1.63778326344158
  H   6.43474801175950     -0.31194803937840     -0.44678682134621
  H   3.31345288315625      1.66307498781778      0.50335105036819
  H   3.38714256315192      1.62281507687591     -1.27743198333876
  H   3.35697035905501      3.97996048170218     -0.94518959301005
  H   5.90778447815899      4.66973360569783      0.75633296380847
  H   5.71025812883323      5.55812710223406     -1.82528962006319
  H   9.98768540415545      3.76643123221974     -2.56574895970217
  H   9.25713743747442      2.90603293962619     -3.90218145006654
  H   10.26930054062883      1.63776926386858     -1.46931343628306
  H   10.81015247515649      1.45201230392509     -2.99495267357956
  H   7.81328739094827      1.05909464841855     -1.52462853867017
