26
Coordinates from ORCA-job 24413optt
  C   1.93516506175897     -0.94252316089912     -0.46385868988561
  C   2.94149694657594      0.18130909195643     -0.19363592378243
  N   3.29442893041496      0.20542304223649      1.21541867939572
  C   2.60126447981520      0.91257657645877      2.00601254965364
  N   1.51611711891246      1.69112285242089      1.59005980557113
  C   0.88069777930199      2.40406961177932      2.40401408155483
  F   -0.13748502568060      3.12844605737399      1.96835365067526
  S   1.12804074389173      2.59954939821987      4.10408742042194
  N   2.39745288914529      1.55944337840737      4.36523462199480
  C   2.97157646409636      0.88544732276903      3.45066624000386
  C   4.08112526376729     -0.04733121057003      3.83662385509248
  N   4.47867412960807      0.12799417410208      5.21433007588751
  C   5.34438982071122     -0.91804204840967      5.70527888420415
  C   4.74158557416221     -2.27020838960756      5.64949493183415
  N   4.22413280353132     -3.29023270329745      5.57719545037427
  C   4.16903562960604     -0.04651712013285     -0.97485028748958
  N   5.10332311237279     -0.23254905691065     -1.61029333331661
  H   1.00901780783927     -0.72145867674988      0.06427710769649
  H   2.33630413557676     -1.89114330259621     -0.11100658877941
  H   1.73180575380870     -1.01573563210476     -1.53106838036384
  H   2.51357321158521      1.13257748940504     -0.52008835010889
  H   4.92913388265354      0.13450615938329      3.17149150406288
  H   3.73199909902833     -1.06526995143139      3.59992335787825
  H   3.67121887040661      0.26147466501342      5.81095607908267
  H   5.62118853309287     -0.70809406973777      6.73771305879705
  H   6.26373698401736     -0.93783449707867      5.11667019954525
