25
Coordinates from ORCA-job 2441optt
  Br  1.83011966224701     -0.44625154133252      0.79303762104834
  C   3.34934733949868     -0.28776114535279     -0.27851614164207
  C   4.15865985897162      0.77697954134502     -0.19446011454996
  C   4.25274689114092      2.01309522408592      0.61963776017398
  C   5.62703053093478      1.87476334204078      1.35441960540609
  C   6.41647394643764      2.72918585774677      0.40043918093871
  C   6.27236846020585      1.98571167300137     -0.98708016985663
  N   5.30906014603812      0.82713760874878     -0.98708868308998
  N   5.65384974281888     -0.16743842271471     -1.80456662517201
  N   4.92042242344685     -1.17196421445517     -1.94241736808019
  C   3.67838746132495     -1.33676095374203     -1.23931044582220
  O   3.00727893984934     -2.30764518900098     -1.45734771516394
  C   5.74013601618157      4.12889687884044      0.53914306310498
  N   6.24843987613256      5.22789136934378      0.18451353556497
  N   4.49270183791036      4.18241222525184      1.22748389508625
  C   3.54977603829240      3.13485325247395      1.35757231687189
  O   2.50805286237786      3.24196612624499      1.92238823240694
  H   4.42555357757645      2.64945397671105     -0.24645788431713
  H   5.95357543573033      0.83868396384392      1.39319420955845
  H   5.59421484600303      2.27101774745974      2.36534581837098
  H   7.47544019982437      2.85733771767260      0.62971868419659
  H   7.22073726871459      1.53902534834637     -1.27212856531529
  H   5.97737629285232      2.67980254176935     -1.77600476584850
  H   7.16662404050365      5.09654986827492     -0.23322555597476
  H   4.21162630498585      5.10105720339659      1.54271011210450
