34
Coordinates from ORCA-job 24416optt
  C   4.31432180136091      1.08932393577546      3.01759054086577
  C   4.59205960546210      0.54621726715452      1.61880938605324
  N   3.46934520850280     -0.20272287514371      1.04905057745701
  C   4.97502420816037      1.67663444503659      0.66914302362284
  C   5.39923951255678      1.16828322209903     -0.71034046817415
  C   5.79153832452579      2.30608482631359     -1.60311115638459
  N   5.18566360943574      2.79802938648795     -2.59017692340240
  O   6.98087631043848      2.83628844179714     -1.18502594827687
  C   7.38262305703684      4.02998794336982     -1.73858204548830
  C   7.22845791002151      5.19331532524511     -0.99196653567245
  F   6.64480330084218      5.10101823350337      0.20657416691068
  N   7.61561112272082      6.36681822557825     -1.38483376774959
  C   8.18048051957585      6.46131748615770     -2.58811569045253
  C   8.38326090067538      5.37195800987901     -3.42319097297674
  N   9.03046232054438      5.51149944039639     -4.65312166128279
  C   7.97880074703498      4.10278782137708     -2.98135727938745
  C   8.18151210564925      2.89281952323258     -3.83564484567541
  H   4.03530468829816      0.28303889593100      3.69780739445177
  H   3.48954321551459      1.80601306537018      2.98386163089678
  H   5.18736745251852      1.59871028799072      3.42894050094412
  H   5.43560627710549     -0.14962371586510      1.67159678333498
  H   2.63224329700523      0.37307887313161      1.06259208024570
  H   3.26601733025922     -1.02072514168213      1.61178689483129
  H   5.78611340301249      2.26128101619636      1.10678468874521
  H   4.12013600142446      2.35387280566564      0.56107666831719
  H   4.58872306221780      0.60546581363894     -1.16886056439757
  H   6.25746779464525      0.50046810350503     -0.60033551124171
  H   4.32292483901715      2.29085647099880     -2.76240015326028
  H   8.48727360061633      7.45334389611888     -2.90271463270019
  H   9.07556911024123      6.46238800826745     -4.98740325751530
  H   8.70149981740940      4.88857177468131     -5.37575222206255
  H   9.19079432656588      2.88882586526897     -4.25117854890188
  H   7.46626217457935      2.88932866468153     -4.66244425420311
  H   8.03107304502501      1.97944465784077     -3.26605789747067
