27
Coordinates from ORCA-job 24429optt
  C   1.53107472043972      0.09469774625564      0.50519331180088
  C   2.91697759064534     -0.19701268613469     -0.04604037255857
  N   3.14886054596408      0.46860420258634     -1.33540443575796
  C   2.46899774514525      0.01808109552124     -2.45471374731677
  N   2.27549555909181     -1.29763505125714     -2.56500051436864
  C   1.63196890740586     -1.73879524497644     -3.62979580001570
  N   1.15675437306838     -1.00421769441728     -4.63052161276115
  C   1.31122242011252      0.28524190642818     -4.49216441737135
  F   0.79743705250668      1.05450183371941     -5.44005643887326
  C   1.94225274669430      0.89845111455111     -3.41893279773445
  O   1.88435256354965      2.25599503928478     -3.24892092951002
  C   2.79399045169325      3.08483546772377     -3.92966864161319
  N   2.53059243763760      3.65172948319669     -5.00709495675907
  C   4.07778920183299      3.27275847273757     -3.15777043272608
  N   4.43459528463644      2.03544096259455     -2.49342506652657
  C   3.74172556694475      1.73771676686894     -1.32755655311330
  O   3.69925737602207      2.47253533389883     -0.37610173162408
  H   1.39843675120054     -0.40332441273043      1.46573914602860
  H   0.75971813647441     -0.27187719535388     -0.17391891550923
  H   1.40095172516224      1.16693000724818      0.64612797325596
  H   3.06644312425143     -1.26314362387030     -0.20016772155739
  H   3.68461008166611      0.17308173090398      0.62950435726555
  H   1.47992299534876     -2.80900897516092     -3.70074378964119
  H   1.59791207136302      3.41153759437987     -5.34243184506038
  H   3.93001218423550      4.03406358245308     -2.39042986025892
  H   4.86115521728397      3.60679858743052     -3.83280080814615
  H   4.54949316962329      1.25101395611841     -3.11890339954752
