32
Coordinates from ORCA-job 24424optt
  C   1.29004017146838     -0.26911333674483     -0.77979282381356
  C   2.63847729900311     -0.08216295488356     -0.09724598737438
  C   3.18814567382042     -1.38985827211014      0.46244496287743
  O   3.24031828153443     -2.38415410058474     -0.54830218946994
  C   4.56212547668364     -1.22976589598901      1.11737156963072
  C   4.60283285163243     -0.17544621999598      2.21788274208330
  C   5.04949508663220     -2.59282965502136      1.66399601373533
  C   6.50576299776864     -2.80152280289985      1.41283360737978
  C   7.48994586001663     -2.88606219667244      2.33599484243097
  F   7.21223487234722     -2.78458737676298      3.64175998563198
  C   8.88216452788840     -3.09365579874636      2.01964927139035
  N   9.34486007200213     -3.21901114020037      0.81981116382149
  C   8.39626277153610     -3.13557705319540     -0.15980747663090
  C   8.47028622724416     -3.21296607109078     -1.52318323453117
  O   7.25804331286650     -3.06720915174439     -2.03441355929436
  N   6.32285178620946     -2.88911040220979     -1.04522214152541
  C   7.00610750988116     -2.93248101783183      0.07638845671008
  H   0.91472115376771      0.67535942808063     -1.17423267012252
  H   0.55196258879501     -0.65495730975514     -0.07342327762037
  H   1.36986121705043     -0.98153018675516     -1.59909607956816
  H   2.54039996739377      0.64288359283032      0.71367044924396
  H   3.36801866124571      0.32483209185773     -0.80633114835853
  H   2.48230648574401     -1.77139294419833      1.21251703617993
  H   4.10611739538359     -2.36981835655348     -0.98066857977114
  H   5.24072948392408     -0.91426315091111      0.31679380997038
  H   3.82198920741970     -0.36343863619577      2.95964109976402
  H   4.46615748967071      0.83101526756895      1.82494523151653
  H   5.56493382211233     -0.20460267497808      2.73369833979940
  H   4.51061811578430     -3.39283110716034      1.15128519485385
  H   4.83567912755445     -2.66696655794328      2.73050318899898
  H   9.57573331308984     -3.14672853692599      2.85310512642244
  H   9.27681719252923     -3.36004747227707     -2.22157292436051
