28
Coordinates from ORCA-job 24431optt
  C   1.16845743740038      0.39476771266201      0.08069458687499
  C   2.56033699748427     -0.13223369279594     -0.02297913990397
  C   3.06264786292494     -1.43014886659037      0.02900759101354
  N   4.41576567534156     -1.23963664653022     -0.11909407782457
  N   4.72766073288288      0.06869493761670     -0.25723705885683
  N   3.60639678915478      0.70376879415518     -0.19631695695293
  C   5.30048996629391     -2.26874497103355     -0.10636825300999
  F   6.55746337362578     -1.90734228139349     -0.26930253961537
  C   4.89989014030323     -3.55149669132753      0.04550559176124
  C   5.88490408098819     -4.68200075026504     -0.00740862859207
  N   7.00306957430106     -4.52818290135671      0.77648287624735
  N   5.72127292905704     -5.74155430711206     -0.68320300185866
  C   3.48464914566354     -3.78569987941362      0.19595735158629
  O   3.10943378880416     -5.06245848623081      0.35693376691384
  C   2.57618099254067     -2.75385549524358      0.19263358081000
  C   1.10799856569079     -3.00673635107322      0.42462010124955
  N   0.66297710291288     -4.21070398207355     -0.29436278938756
  H   0.67538509889359      0.06899946730987      0.99788611593834
  H   0.54830441684657      0.09144481007165     -0.76527330719995
  H   1.21664976642682      1.48208170594187      0.08771637925197
  H   7.31320233588917     -3.60309927395849      1.01648456204140
  H   7.73117592549653     -5.20157155788694      0.59445016268806
  H   4.81239022930908     -5.75960593976916     -1.13153724868360
  H   2.13512022336938     -5.10470420365819      0.19365117207778
  H   0.53433205625249     -2.12004571289805      0.15242947255538
  H   0.93536197922738     -3.18843683910471      1.48936078388404
  H   0.66993026881635     -4.05174979271816     -1.29606005978149
  H   -0.27944745589748     -4.46674880532386     -0.02767103322678
