33
Coordinates from ORCA-job 24443optt
  C   0.82340663569662      0.29025355960834      0.80810637685795
  C   2.17142768481471     -0.01093642629145      0.15878029646217
  N   2.74527594512132      1.19642810004047     -0.38473890664238
  C   2.41864078764938      1.75546957753905     -1.48340067205573
  N   3.02125418002778      3.01586291935168     -1.67548444263772
  C   2.74770423593206      3.86053887036364     -2.68188251757485
  F   3.40662863335765      5.00793195718567     -2.60855450816377
  C   1.88680076099857      3.56348472098236     -3.67259444265896
  C   1.31662798350343      2.26037224031546     -3.60338403650218
  C   1.55358994689974      1.36739301776690     -2.60672959192151
  C   1.04543630086216     -0.04656788404222     -2.74029651203437
  N   2.08514485927919     -1.03132117967885     -3.04707656747989
  C   3.15473400124530     -0.60891462658806      1.18457418454717
  C   4.49328167804616     -0.96341349831404      0.52692312922301
  O   5.38920651145656     -1.57853818166877      1.42325771730353
  C   3.39782331855332      0.27207743012309      2.32772083246741
  C   3.66110580408563      0.95535935551027      3.27755095790707
  H   0.12487226299501      0.69193687072746      0.07291182014960
  H   0.95445051875654      1.03378890071754      1.59485768807517
  H   0.39217815916081     -0.61286370168009      1.24364718976308
  H   2.02961272247588     -0.80228863323262     -0.58540491585303
  H   3.63591814357397      3.31236064426335     -0.92851901048331
  H   1.69037539019934      4.26241215978362     -4.46806970446051
  H   0.66845865140073      1.95186466860097     -4.41655214569001
  H   0.32035064152584     -0.07300894634850     -3.55422475066064
  H   0.51141984312539     -0.37246698144391     -1.84892266892961
  H   2.48445348168655     -0.82963425661033     -3.95723797201658
  H   2.85047548303424     -0.96308860523480     -2.38432927211389
  H   2.71707178106027     -1.53649042476695      1.56736645738145
  H   4.92060813992435     -0.05616381035097      0.09085979308097
  H   4.31389101607942     -1.68556564988490     -0.27265886824536
  H   5.50621737555603     -0.98967767967270      2.17802553131080
  H   3.87355712191603      1.56840549292930      4.12047953159491
