29
Coordinates from ORCA-job 24440optt
  C   2.02792017859890      0.40081802407872     -2.09946306182263
  C   3.45805839477729      0.23205301965713     -1.59714746782333
  C   3.97078179171948      1.59858352301166     -1.08379882230675
  N   5.40167559101903      1.77860349706312     -1.18187159102577
  C   6.05415978358945      2.69405261541632     -0.60060428515161
  N   7.26427284568888      3.12277019844266     -1.17023775831890
  C   7.35231444676884      2.62183877980432     -2.49456439661111
  N   6.45645469906226      3.13824457223597     -3.32038807389432
  C   5.77245029095617      2.33064973082702     -4.11054500751815
  C   5.93759629764281      0.94452928890638     -4.01879292581424
  C   7.15111736108347      0.49505506210488     -3.49940100256547
  C   7.92066380575070      1.38442610629902     -2.78359502112910
  F   9.01158726682435      0.97980608551335     -2.12388215301809
  C   4.63874570327426      0.19544211370631     -3.95175332997999
  O   3.77265692482392      0.28601136734542     -4.78379568236335
  C   4.34671736564171     -0.53577954827508     -2.61338732633678
  O   5.50290252853916     -1.01883277677570     -1.97520385414792
  H   1.41684283717859      0.90064852478748     -1.34528072597688
  H   1.57078031317784     -0.56339829556650     -2.32173959826054
  H   2.00525569654066      0.99979423116569     -3.01122243918771
  H   3.44733186273585     -0.45836809392353     -0.74859049774449
  H   3.57697756497328      1.76915812691379     -0.07270274679921
  H   3.53224577530116      2.37255553936530     -1.72463275377710
  H   5.71954436520272      3.26499795651276      0.27110503656023
  H   8.07689394106972      3.27189592566745     -0.59267919077135
  H   4.96106107150076      2.76131239473263     -4.68561246387509
  H   7.41377229434538     -0.55347780531190     -3.47004581879805
  H   3.77037402388366     -1.41462807746611     -2.91362621005854
  H   5.90784497832963     -0.26276208623857     -1.52554083148369
