29
Coordinates from ORCA-job 24458optt
  C   1.10681628470062      0.61013692345209     -0.32226820195590
  C   2.59025668400300      0.39813026503049     -0.23138397939165
  O   3.17588958788837     -0.35469991649517     -0.95098603646088
  N   3.28562167221585      1.12984853062551      0.82532401837258
  C   3.07461201269225      2.48094932845276      0.72433452131702
  O   2.50301477336125      2.99782318586097     -0.22386947468668
  C   3.57144790953182      3.26926583453447      1.86740281572784
  N   3.35709610769136      4.58938452212059      1.76825066917139
  N   4.13965037697913      2.72225142983109      2.88670141156395
  C   4.34511951132280      1.38890591424822      2.87917376360040
  F   4.91634861420139      0.97685812439412      4.00538380202086
  C   4.01511588725655      0.52296775953758      1.89169470143301
  C   4.33618490248073     -0.97267607936048      1.83003667514454
  C   3.06453750314894     -1.82141868212614      1.91571391613741
  O   5.10366173207896     -1.27156549912288      0.67233148082121
  C   5.27917344286823     -1.44330261469651      2.94805112174476
  O   6.54200154923932     -0.84337947073202      2.86798217249993
  H   0.64159756424136     -0.37304937623708     -0.23506448368611
  H   0.87686338552936      1.01146247951045     -1.30726066774790
  H   0.72532779777990      1.28174315673109      0.43873630985618
  H   2.91308377611730      4.94030425619858      0.93621885723501
  H   3.66895649094790      5.20569945006391      2.49730330191494
  H   2.33606955614431     -1.58897536564010      1.14168817963133
  H   2.58847817200380     -1.67721167626463      2.88716624843079
  H   3.33421140933778     -2.87140218139701      1.80458192214089
  H   4.62225360969912     -1.01906577517858     -0.12726416806894
  H   5.35611839801142     -2.52825488763530      2.81487383363271
  H   4.86770466640121     -1.24614077962482      3.93376789647976
  H   6.83578662212589     -0.94458885608123      1.95437939312153
