31
Coordinates from ORCA-job 24459optt
  C   1.75923884171229     -0.19940402391103     -1.54575184687770
  C   1.84737775678687      0.06814327120318     -0.04125613830328
  C   2.46043066422666     -1.19598633542050      0.68209023368954
  C   3.91690600497659     -0.75183967334009      0.72811073903380
  N   4.12926530319326      0.26979635761284      1.74327973923102
  C   3.24619889745223      1.41789680852021      1.61679649546363
  C   2.72542225091908      1.38037354957780      0.19583142025730
  O   3.80714076609122      1.48669802506025     -0.76389746990321
  C   5.19985603354263      1.38270651968750     -0.42573295270749
  C   5.96078760634805      0.08372571090106      0.09279727814994
  O   7.13949753560868      0.22685913018527      0.26575723463731
  C   5.29505353407980     -1.29309661357883      0.43859030722700
  O   5.98645193331211     -1.91714871069951      1.47636010003507
  C   0.42950610881406      0.30483697796746      0.45819944195674
  F   -0.32334341008584     -0.79085382578838      0.28644356416963
  F   0.36986420922907      0.60115423712386      1.76674505799539
  F   -0.18274964929580      1.30816702383365     -0.18783156338113
  H   2.72818302830026     -0.52396693860915     -1.92206698785572
  H   1.47916991120384      0.70075452729013     -2.09170031451121
  H   1.02987386395720     -0.98304942017640     -1.74756426959677
  H   2.27994516059609     -2.07805911023353      0.06784124621783
  H   2.03517310111318     -1.36794776825337      1.67150181515276
  H   3.90788782037030     -0.27079611819506     -0.23126232691902
  H   4.18856530810436     -0.12687382292473      2.67063701094608
  H   3.80226418572823      2.34543633842799      1.78471647082471
  H   2.40530645533489      1.41065984421122      2.31114972421208
  H   2.08707821124643      2.23970105695570     -0.01038258341183
  H   5.47038149366365      2.12605848889903      0.32559270922871
  H   5.70855777404245      1.65127866701244     -1.35121981931134
  H   5.29158552534719     -1.91897342683336     -0.46500113871056
  H   6.89012377408091     -1.56925074650564      1.46422682306072
