31
Coordinates from ORCA-job 24468optt
  C   2.97340794038121      0.40815114523722      1.20661290564094
  C   2.34175657698836     -0.08338017056349     -0.09780579278544
  C   2.90276696077289     -1.39738730874942     -0.54327723552647
  C   2.52676066321581     -2.64182898075365     -0.04299529061236
  C   1.60879932489551     -3.01453361792480      0.95750587378296
  C   1.58489347932306     -4.33714690663141      1.26090543923276
  F   0.80878129313170     -4.77717962461541      2.24633714581919
  N   2.23986790286311     -5.29351202024290      0.61070648569669
  C   3.04565101089349     -4.96413932076267     -0.36928928786899
  N   3.60988255762004     -5.93676574247225     -1.11690800143801
  C   3.61811484724418     -5.86019330551842     -2.57077209760781
  C   3.52971569133908     -7.29295902131895     -0.60426604590728
  N   3.31985725071699     -3.63063960175595     -0.63183898333153
  C   4.25973759412008     -2.99427547645617     -1.45853133365339
  C   5.50909273500253     -3.48462102936352     -1.99085670528210
  O   6.03956133290163     -4.55935622882909     -1.82209628178797
  C   3.96951866898976     -1.63616521069008     -1.40540133858805
  H   2.53583203113907      1.35475141655584      1.52537220290653
  H   4.04711365225664      0.55086944989101      1.08060569277206
  H   2.82869485002078     -0.32228909755206      2.00431285969300
  H   2.50019442898008      0.65666327086531     -0.88442531173217
  H   1.25969482533226     -0.17026278589738      0.02914799805655
  H   1.00519152778962     -2.28631471008235      1.47566098982891
  H   3.51407375286841     -4.83453797675003     -2.90998258205225
  H   2.77515558006644     -6.43946961396755     -2.96267581619847
  H   4.55190538168408     -6.26495891960698     -2.95385641604621
  H   3.76677213379960     -7.30387137606497      0.45558450328387
  H   4.25823390740819     -7.89305684747517     -1.14743733828735
  H   2.53096140246013     -7.71933194142807     -0.74068826255582
  H   6.00928894148900     -2.70164392959283     -2.59234800635761
  H   4.54772175430623     -0.88561451748373     -1.92529996909420
