27
Coordinates from ORCA-job 24465optt
  C   0.98886902472852      0.34638211767687     -0.73201288006192
  C   2.46022492624105      0.11809311015601     -0.52934692512924
  C   3.36650025679648      1.17836404787181     -0.54048111160171
  F   2.87968579166432      2.41144198453175     -0.72708687783578
  N   4.65775189945490      1.10590626027911     -0.38405456129831
  C   5.17119975168582     -0.10959172568839     -0.19053649633360
  C   4.39670904201145     -1.25202772855659     -0.15324182968181
  C   3.01828493375545     -1.14297700662601     -0.32740558729000
  C   2.13707548154409     -2.36786565631113     -0.25826052624220
  C   1.71273442434367     -2.68786513261287      1.21281226794487
  O   1.66134655173328     -4.11852566665963      1.36000190238449
  C   2.40815202400958     -4.61159789849902      0.33956189657868
  C   2.77082548593319     -3.68663472868643     -0.57575846802877
  S   3.57942805571147     -4.42347100133906     -1.90011210718412
  C   3.41143118530048     -5.98682093940589     -1.15098291747483
  O   3.96014065739121     -7.09131833436101     -1.69979454956300
  C   2.77002678704625     -5.95320151417601      0.04884721675665
  H   0.75723375651620      1.40770364788717     -0.71792705430096
  H   0.40235341936277     -0.14202825055358      0.04707341631646
  H   0.66089192721906     -0.05698522635020     -1.69267668014985
  H   6.24591912706007     -0.16093898273777     -0.06336802877869
  H   4.85215993358242     -2.22119864243819      0.00216771770862
  H   1.25349267190753     -2.20606995190332     -0.88231736921122
  H   0.73791391063419     -2.28621981392722      1.47862692544490
  H   2.47181590355578     -2.30398189933679      1.89799483340298
  H   4.11163412183246     -6.97241393574764     -2.64281381803093
  H   2.57919894897822     -6.82115713248591      0.65909161165928
