31
Coordinates from ORCA-job 24463optt
  C   2.91762941678254     -5.50321481942160     -4.57851783897835
  C   2.58013856113907     -4.20346587355814     -3.86873811240740
  N   3.78187742063439     -3.64752467935341     -3.26934879784229
  C   3.68431473627926     -2.74478575212352     -2.38243833587621
  C   2.39156190979792     -2.16648368290579     -1.86716992485316
  N   4.81873055053771     -2.23024994742765     -1.78569708021751
  C   6.15719010571384     -2.46264276432128     -2.17521055933858
  C   6.97214312188748     -1.36681334633253     -2.43886273976425
  C   8.32390311695424     -1.52229644965803     -2.70296905824529
  N   9.20256080126250     -0.46525253761130     -2.90716715404600
  C   8.76675344556461     -2.84276402916569     -2.69456776064384
  F   10.06711567859174     -3.05339762934382     -2.94448268618067
  N   8.03231664020607     -3.88960417337446     -2.48262782548984
  C   6.73831738693410     -3.73662463163431     -2.21047582887434
  N   5.98450419347102     -4.87684290427777     -1.95775191891639
  C   6.49832036595565     -6.09424969088558     -1.61087827445973
  O   5.83230064437503     -7.10045899375654     -1.57079668678912
  H   2.03172784092097     -5.93353674134780     -5.04621793756881
  H   3.32256161949317     -6.22866155119957     -3.87134777832989
  H   3.67012145869865     -5.32752998573600     -5.34720616561860
  H   1.80236250016038     -4.38547761845295     -3.11805739060721
  H   2.16445038570656     -3.48706356766273     -4.58713056210228
  H   1.83713007232079     -2.93210459701385     -1.32283562429009
  H   1.77224933131381     -1.84398468977631     -2.70391499313153
  H   2.55223031063859     -1.32142708251732     -1.20043146229014
  H   4.68050233432764     -1.41385719027483     -1.21458322900002
  H   6.54044349790685     -0.37230986976088     -2.42468989957680
  H   8.79701429472364      0.35067647650704     -3.33807649802531
  H   10.07585005820877     -0.73069275446381     -3.33701099604594
  H   5.02106719881201     -4.84505181707474     -2.28568130314013
  H   7.56561100068087     -6.06530710607475     -1.35811557735025
