34
Coordinates from ORCA-job 24460optt
  C   0.66129846554052     -1.73071189340483      0.18069371609610
  C   2.12659780572387     -2.13280808828690      0.03177330768140
  N   2.47254329836356     -2.60920868513419     -1.31153335645525
  C   3.02381748726250     -0.96450661440598      0.43217949086293
  C   4.54494868875112     -1.23659675498377      0.45052856373663
  C   5.13741569448377     -0.95691033444409     -0.93090177217388
  C   5.26199523812163     -0.28374190736441      1.43472599498495
  O   4.98396267980117      1.06821536704622      1.12700746407405
  N   4.83419689800862     -2.63615733498503      0.90749065109832
  C   5.50779621271311     -3.50067649174922      0.11351553087906
  N   5.87014990510957     -4.70204948578455      0.42197189865014
  C   5.53263840327579     -5.15517289235928      1.65875892660760
  O   5.94561339942754     -6.38407736978777      1.98815788934313
  C   4.80401338414284     -4.40167320250240      2.50740520978154
  F   4.42470939078640     -4.85979076144754      3.70670180904599
  C   4.37577682755915     -3.07021890254767      2.17375582893315
  N   3.64398969111080     -2.32154122801159      2.90951678853329
  H   0.00595753419875     -2.55644757338606     -0.10150886135633
  H   0.42983240754963     -0.87801818676878     -0.46344811194971
  H   0.43553715443846     -1.45323752601500      1.21168530982249
  H   2.31391548564477     -2.96368745533894      0.71361681450666
  H   2.21474368972134     -1.90902874734450     -2.00213980018688
  H   1.93644334909016     -3.44059129325731     -1.53419593896915
  H   2.70503051240135     -0.63178493273445      1.41879980172741
  H   2.85256785656578     -0.14129521955456     -0.26882623350838
  H   4.96267777167615      0.09856310022337     -1.13215694880008
  H   4.66066134206584     -1.54951865604372     -1.70813303505227
  H   6.21749240767462     -1.11324868950179     -0.94892490722956
  H   6.33923391356725     -0.41898805110019      1.31671392690593
  H   4.98565524148430     -0.51927741131071      2.45912843544622
  H   4.17077554712415      1.32524918190492      1.56984108709595
  H   5.75792606461633     -3.14523412535996     -0.87186941698245
  H   6.42025173493465     -6.73496059563678      1.22259462574222
  H   3.42283451706445     -2.81186723862252      3.77107531110876
