28
Coordinates from ORCA-job 2446optt
  Br  1.65336731959914     -0.16788435011613      1.50092168228524
  C   3.32076020257241     -0.38629305190086      0.64239119724961
  C   4.11497108197526      0.66209505440126      0.43948000560100
  C   3.97993032061636      2.11517745584214      0.71879406339333
  C   5.00103422266687      2.58947830549594      1.76461570745443
  C   5.36992784336544      3.79749632022532      0.92500967332347
  C   3.91919560879662      4.31362146639041      0.57240481301580
  N   2.96966670520989      3.17136467497161      0.89931197855420
  C   6.31613605594607      3.12294860013163     -0.12012139709154
  C   6.07416561443277      2.68761318950228     -1.52458424188417
  N   6.30448974171011      1.68150960841354     -0.49580460319369
  C   5.44018001715602      0.54496787561987     -0.23889448600847
  C   5.91344511443681     -0.63525778218873     -0.67601012405214
  C   5.23770302722797     -1.92280319216604     -0.59246323420886
  N   5.67344631053238     -3.03691470504102     -1.02047998013831
  S   3.64213029414782     -2.02696842580631      0.18310387151092
  H   4.35076669161381      2.40638020116803     -0.24819653212057
  H   5.82870648075438      1.91250962852335      1.95578141743582
  H   4.47444120628013      2.81560060593496      2.69007894998770
  H   5.93725203445266      4.58505929823702      1.41920675678276
  H   3.84454996466690      4.59995123450106     -0.48059759431157
  H   3.67546957543976      5.17783504498176      1.18788671137406
  H   2.25545637691274      3.11682669512478      0.18080532965027
  H   7.34494656871728      3.40183419312446      0.08499132324556
  H   6.85148779699487      2.78971371773637     -2.27366111240666
  H   5.06676939816024      2.79240020373716     -1.91885722156980
  H   6.89116541540799     -0.65360042030149     -1.14349152535984
  H   6.58943901020726     -2.92766144654237     -1.45262142851858
