29
Coordinates from ORCA-job 24475optt
  C   2.36079975142676      1.46950138817318      1.90112600759286
  C   2.99992290226740      0.57954729742875      0.89328608640925
  N   2.50291448382576      0.24382967194262     -0.26732404903157
  C   3.43017374067789     -0.59026467749958     -0.84753700395141
  C   4.50560493242919     -0.75752036087437     -0.02747414163274
  N   4.21129500657713     -0.01565490244751      1.09121127277429
  C   5.74789768854835     -1.58475597951149     -0.14740981375984
  N   5.75926894516155     -2.44877653902630     -1.33102380940683
  C   7.06491816297545     -0.83108910674916     -0.07857153012399
  C   7.23481938413293      0.53636634438379     -0.26319298590702
  F   6.18063245738043      1.29993700134219     -0.59459356778203
  C   8.45134146924677      1.17782548900981     -0.12742099668001
  C   9.56929730980294      0.42377558163894      0.19832322671343
  C   9.43115966086262     -0.93344930868643      0.35467308921234
  F   10.50839318495242     -1.69001345284357      0.65373315812465
  C   8.21408513276530     -1.59245606550888      0.20497343027054
  N   8.13353231981793     -2.96085713752896      0.38192973662627
  H   1.42932693428825      1.84591257316420      1.48654798812962
  H   3.00271209070659      2.31651917756498      2.14885365634451
  H   2.13919689778223      0.92970002577468      2.82346625944071
  H   3.26947414456573     -1.01578137358437     -1.82467464379353
  H   4.81724270976795      0.12110763030752      1.88359066093113
  H   5.76645391864473     -2.26153133360443      0.71713946366905
  H   5.83530074734148     -1.88211654188957     -2.16939332182133
  H   4.88627045848551     -2.96267565420582     -1.39145564054501
  H   8.50727986518699      2.24500421137896     -0.28470817296910
  H   10.54493559479715      0.87535286566945      0.31496114848322
  H   9.02822603561013     -3.42289469805487      0.43340153684395
  H   7.48152406997230     -3.40754212576375     -0.25243704416140
