28
Coordinates from ORCA-job 2447optt
  Br  1.20621354148407      0.10180981187544     -1.50329881276911
  C   3.04798608972297      0.28612409427545     -1.05876220998934
  C   3.76006777774684     -0.83383107103143     -0.66203547575185
  C   3.34667670953613     -2.26673613205407     -0.47072425595499
  C   2.23504511964212     -2.51836880265742      0.56015909744978
  C   2.78206599739791     -3.68741988509647      1.41972007099207
  C   4.28251796568041     -3.35413438479585      1.44020912250894
  N   4.56476267963690     -2.91750814691935      0.07743036686266
  C   5.71101761163216     -2.01180017434200     -0.04683537458766
  C   5.10908709550770     -0.67443966972828     -0.39249288276834
  C   5.69017766960166      0.57859342042031     -0.49760377473115
  C   4.86693818857950      1.62755005808611     -0.88132705811116
  N   3.57060076396362      1.48524870079648     -1.16338136585105
  C   2.56076308723557     -4.98796595244762      0.64872823532525
  O   1.77763867629857     -5.83530892599718      0.95665242717055
  C   2.19383412316355     -3.74854366524725      2.74897601289878
  C   1.72801115866368     -3.78760350214137      3.85037786655179
  H   3.08174610581314     -2.70954214648589     -1.43642613308861
  H   1.27221494790241     -2.74640256242711      0.10770454493273
  H   2.10815162475347     -1.65056293464936      1.20835017065085
  H   4.89405030523129     -4.21739495888125      1.71179351271106
  H   4.45198251677807     -2.56390667925896      2.18492601535248
  H   6.39048962692449     -2.33536515528517     -0.84058706816598
  H   6.28661366906059     -1.98128719780536      0.88171768850648
  H   6.73888246094392      0.74886302355391     -0.29404056634691
  H   5.26069259039063      2.63261822425792     -0.97513308550325
  H   3.18776096693838     -5.07803649183377     -0.25875564473178
  H   1.30601092977017     -3.83664889418047      4.82565857643776
