29
Coordinates from ORCA-job 24470optt
  C   1.01733173494191     -0.00370151567764     -0.01080249078738
  C   2.54208211098491     -0.08124131396843      0.05378179750621
  C   3.07846641242109     -0.03260738803688     -1.38427445267685
  C   3.06510633252464      1.16019190818941      0.82153334882495
  C   2.58972637708000      1.22470911629080      2.20051378927951
  C   2.18576519515714      1.25759860448465      3.32788774698178
  C   3.01712164829655     -1.35319781772132      0.75368767200310
  C   2.13269795621048     -2.27792640506781      1.30334866842443
  C   2.53879441691658     -3.44374148038912      1.95002981471446
  N   1.64039090496101     -4.37919081059431      2.44338256480233
  C   3.90116919863232     -3.67823229898604      2.03652255597361
  F   4.31640088520045     -4.79117845318368      2.64783089576341
  C   4.83255300562434     -2.79042353443249      1.51878098076771
  C   6.23315118874437     -3.04891756799035      1.63845504304689
  N   7.35601249723025     -3.25859161883910      1.73617756309114
  C   4.36941446770704     -1.64097923737896      0.88609097912157
  F   5.29859561779801     -0.80185573559555      0.40666585956595
  H   0.73141492383340      0.91152717196845     -0.53085662719643
  H   0.56867432271316      0.02348055775364      0.98259306461388
  H   0.60446263226547     -0.84641931913434     -0.56762390412768
  H   2.70223852005512      0.86265394386844     -1.88285694957714
  H   2.73199055315163     -0.90270728478684     -1.94352113573866
  H   4.16551754029088     -0.01132136956727     -1.41862501941291
  H   2.73314672814068      2.05450348824927      0.28688907547497
  H   4.15570620294774      1.17033151173140      0.81520154418655
  H   1.84005313046087      1.29597763209616      4.33309769730134
  H   1.06901334023331     -2.09624083300928      1.23425827928629
  H   0.74168348401414     -4.01034646052377      2.71025004564004
  H   2.02031867146249     -5.01515348974902      3.12758159314693
