26
Coordinates from ORCA-job 2448optt
  Br  1.28320175763629      0.01670748209811     -1.17104380420633
  C   3.11129589703684     -0.05083305401441     -0.73996803011868
  C   3.90002882694127     -1.17844131875480     -0.94862783419697
  C   3.62091466773979     -2.59120326363114     -1.41759696694889
  C   4.96631941019900     -2.93758560531910     -2.07109969081213
  C   5.77854829876470     -2.54537618991345     -0.81859329066191
  C   5.07452683976635     -3.46949089114134      0.23048883907270
  N   3.66764270845356     -3.49518897157030     -0.24217701461668
  C   5.66495631189035     -4.80993495988387      0.24510914997002
  C   6.17026976459156     -5.89555797325999      0.24224901020234
  C   5.23742941355701     -1.16192932065794     -0.56577583289290
  N   5.87437015288036     -0.13187191422326      0.00375740799116
  C   5.11287834705191      0.91739327547037      0.14369238127389
  C   3.76369849209356      1.02646584555107     -0.19248473956586
  O   3.29694232688685      2.25514900842190      0.14154743270996
  C   4.45726601466698      3.01217415019138      0.49623901644587
  O   5.52335588773795      2.09465821567692      0.69108163359311
  H   2.71800343895364     -2.74011120839417     -2.00222414989598
  H   5.19587031051299     -2.31409170133831     -2.93207184617723
  H   5.04249232985219     -3.99493226376669     -2.32017229724006
  H   6.85882333631119     -2.64159865391582     -0.84131813278541
  H   5.15971636029354     -3.03772105399533      1.22976240275476
  H   3.03271860985216     -3.19125144868220      0.48469586336331
  H   6.60797927912451     -6.86490955987435      0.24244263611803
  H   4.26455764469673      3.54969986414087      1.42132353685242
  H   4.70619357250861      3.69078151078588     -0.32423568022852
