33
Coordinates from ORCA-job 24495optt
  C   1.60484807322984     -0.90438899885485     -0.53770244038687
  C   2.63068333807471      0.02278017514803      0.11729948786297
  C   3.85343096662021     -0.75976355975012      0.60788401830048
  N   3.47476427534496     -1.72719476063959      1.63498172942180
  C   3.06784201135027      1.08773332852773     -0.84047710249578
  C   2.73860649009271      2.42821048922675     -0.88946596419366
  N   3.39567642286079      2.94210699625168     -2.01058974542616
  C   3.35066160324838      4.28200008100245     -2.36679550863766
  C   2.57642165459804      5.12808206236441     -1.65082029768347
  N   2.42300445229896      6.47033743754121     -2.01251406666251
  C   1.81580379490170      4.65632347519865     -0.50886246874151
  C   0.93071294387675      5.59759884603203      0.25130845864780
  C   1.93837051335488      3.35262980916246     -0.17192371935594
  F   1.27746104290761      2.86677419867410      0.88733575356771
  C   4.05017137894763      1.90408067536271     -2.57733305981180
  N   4.85768559885402      2.08290778837278     -3.69753698177245
  N   3.87389533091525      0.79134458188287     -1.90111290666727
  H   1.33511256714247     -1.71164069185775      0.14157201819920
  H   2.03185338498438     -1.33761850054187     -1.44431727020591
  H   0.70639739604221     -0.35132987066802     -0.81415563571340
  H   2.16865162656503      0.50983344071500      0.98051148472746
  H   4.61601635547231     -0.04575493759944      0.94280094374472
  H   4.27567555218469     -1.30261549651733     -0.23945386528558
  H   3.22783844118576     -1.25446832275645      2.49679598135739
  H   4.24500307280844     -2.34782384111687      1.84809593159839
  H   3.96040484302950      4.57657941385252     -3.20765616871842
  H   3.11283819658897      6.80057969283503     -2.67045522170569
  H   2.33591751337868      7.10360519279077     -1.23155959518244
  H   0.23173678811062      6.09592380565038     -0.42298724108354
  H   1.51264028749790      6.37283584111597      0.75838831933928
  H   0.36271033562760      5.06544821962135      1.00978615871192
  H   4.34725212549368      2.41966081603560     -4.50590302115182
  H   5.31691162241099      1.21122261293778     -3.92513800459722
