28
Coordinates from ORCA-job 24496optt
  C   4.62069340656629      3.12159936984507      0.82647351044528
  C   3.55428795191956      2.32876384182597      0.07992084300429
  C   3.92186385431156      2.01158761888693     -1.36808963631457
  C   5.16068843238166      1.08771440097528     -1.50018040095045
  C   5.00278477538347     -0.16824227367096     -2.40770392031513
  C   3.63686404763281     -0.59273118944770     -2.66702845661199
  N   2.55063143685853     -0.90574944754783     -2.85252468331408
  C   5.79311882537084      0.13955643205965     -3.71453377388903
  O   5.74599724317325     -0.51244323364036     -4.71782804804005
  C   6.60449307433943      1.31652014600161     -3.42330299302034
  C   6.29333738252405      1.79528971230404     -2.19107353543313
  N   6.91993315036367      2.88074929548253     -1.69841931433120
  C   7.90964666483436      3.59878065049253     -2.38722508268943
  O   8.45610408399917      4.54780275641469     -1.88406434900666
  C   8.16967980046089      3.07220148022902     -3.73350603733979
  F   9.05348254977656      3.76859808632399     -4.43211806616573
  C   7.56921082039772      1.98079143657063     -4.23694431442727
  H   4.29349019707266      3.37232477670215      1.83491614508769
  H   4.84093786615634      4.06078069107709      0.31171133958839
  H   5.54970401162432      2.55384653752325      0.93320856032778
  H   2.62266534371062      2.89741100033918      0.07833215799953
  H   3.34525272814426      1.39574583459721      0.60998007116803
  H   4.10908391528121      2.94577242280381     -1.90415359789672
  H   3.06806730733948      1.54400862912263     -1.85729419253869
  H   5.46985301643811      0.76997810555407     -0.50141079857347
  H   5.52545388079953     -1.01275073643081     -1.95019791332768
  H   6.68538620859201      3.24788265526506     -0.78368579807473
  H   7.80228802454755      1.62421100034122     -5.23225771536083
