27
Coordinates from ORCA-job 24519optt
  C   2.98442815136931      1.32401381111683     -0.11202283722057
  C   2.39308302731839     -0.08373136808390     -0.03917429315022
  C   2.45534953850412     -0.72544729584872     -1.35669234164651
  N   2.51780887112537     -1.24347943506857     -2.37687448471686
  C   3.07035178075607     -0.98146007889575      1.04826469015228
  N   2.89265504637153     -0.50108965202368      2.39712257290916
  C   2.48532264502887     -2.40931448666273      0.93208115318407
  N   2.83231016854658     -3.25231015586605      2.06028946724812
  C   3.99390923236274     -3.98403358117034      2.05950657892031
  C   4.30287170129662     -4.76101576309009      3.11496176490815
  N   3.47217707805058     -4.84655814116597      4.20299697792058
  C   2.40652282838882     -4.16105119281720      4.19531367759565
  F   1.58446768646601     -4.22780921350986      5.22443577043891
  C   1.96091116068915     -3.24914454299963      3.13294015346293
  O   0.95169419495250     -2.57051019287618      3.16734352521686
  C   4.52349788730107     -1.04475580443700      0.77162901313403
  N   5.64236399551933     -1.10474446315116      0.53402173546661
  H   2.45678766233860      1.91136976060314     -0.86094167447645
  H   4.03885899290812      1.28254690375936     -0.38463202565924
  H   2.88095187435829      1.82766973519399      0.84806957501983
  H   1.33865176617330     -0.02934488284345      0.24681559191658
  H   1.93501859065536     -0.60877509726062      2.71583504688932
  H   3.22695745661389      0.44258540541564      2.53327017691916
  H   2.83368804282379     -2.87832095250332      0.01436701727400
  H   1.39878304919159     -2.33110503453578      0.90773253103055
  H   4.61907465832783     -3.89452226754896      1.18288969085512
  H   5.20850291256210     -5.34666201372996      3.13745094640760
