32
Coordinates from ORCA-job 24517optt
  C   2.70415655541786     -1.38453264331458     -0.90855067691358
  C   2.37477671290960     -0.13930849711123     -0.09246344575409
  C   2.81245217265891      1.15096927981943     -0.78693103804771
  C   2.74775936267791      2.44495001523995      0.07058223075382
  O   2.34580475301249      3.51861405418510     -0.83004098990220
  C   1.82428817819355      2.93414502574812     -1.93356698141616
  C   2.00904367318370      1.56753345226855     -1.99344170538382
  N   1.57210848902605      0.81121069273374     -2.98982172343218
  C   0.93556758701566      1.43849373261577     -3.94445728794148
  F   0.49280912614210      0.67878517763787     -4.95201220766972
  C   0.67548674669941      2.80386938763679     -4.02881156682302
  C   -0.05898282937903      3.39957984809695     -5.19148717041913
  C   1.14710259841848      3.55808821919797     -2.96408274241111
  F   0.94183625757851      4.87576659462987     -2.93457684047463
  C   1.74866836038157      2.42849170265963      1.22500231002188
  C   1.83066147914828      3.70107899697827      2.05220995803046
  O   0.43471646257024      2.20840626508608      0.74528805041678
  H   2.41468742414603     -2.28357486634690     -0.36405203898237
  H   3.77656618328428     -1.44483459563002     -1.10678006100995
  H   2.18473468188947     -1.37676880777219     -1.86474447394775
  H   2.88831966544317     -0.20280263106865      0.87104677270474
  H   1.30496876096833     -0.08803202424371      0.11694968486263
  H   3.84891693591354      1.01570341392223     -1.11859325066265
  H   3.73169840893276      2.71644278412437      0.45300962345918
  H   -1.05000120235486      2.95555863729044     -5.28691588220734
  H   0.47636733626359      3.20162265739460     -6.12037070617403
  H   -0.16515991461101      4.47442926757343     -5.07076000383664
  H   1.97695728859771      1.56947384692702      1.85853651705922
  H   1.63063975745136      4.57270023626256      1.42628868283557
  H   2.82179934862968      3.81803936251084      2.49277235084824
  H   1.09405033158464      3.66514207385053      2.85344224059263
  H   0.15519930820598      2.99775934109713      0.26733237182445
