26
Coordinates from ORCA-job 24513optt
  C   0.94927732459027      0.10099429614624     -0.01606498895045
  C   2.46465235099393     -0.09724134137619      0.06342368403193
  C   2.96935956070487     -0.04782261650445      1.47894971699842
  N   2.18641678635892     -0.38402495613594      2.46384470648413
  O   2.97684100732266     -0.30997811937245      3.60652506849760
  C   4.20455481390619      0.07455775709242      3.26438776970008
  N   5.08069593262313      0.25346644014879      4.29388807082314
  C   4.28408742716674      0.25816170889012      1.91620123155085
  C   2.87030871692425     -1.41721067618347     -0.56254340086379
  C   3.50504452179694     -1.48383326555416     -1.79349064674997
  N   3.86067593659959     -2.62638654267577     -2.38856871516498
  C   3.59154917162684     -3.73500244490995     -1.76810955783422
  F   3.95441983455881     -4.86426210770025     -2.35760869067323
  C   2.95452518999939     -3.81544777844755     -0.52652954249812
  C   2.59086004033282     -2.62114549818568      0.07565875454296
  C   2.70344893354202     -5.07956068286941      0.09350416286061
  N   2.49551533925208     -6.08265700614379      0.60843461501091
  H   0.66449717036520      1.05281135848180      0.43040708344433
  H   0.43330811922481     -0.69046984610913      0.52669420531551
  H   0.62476484601510      0.08193758642532     -1.05606430922838
  H   2.96146830064054      0.70194012578433     -0.49224803853674
  H   4.84427010689793     -0.22378780467012      5.15000098314159
  H   6.05697462907504      0.21649463935249      4.05334675475928
  H   5.13132443681853      0.56785756225609      1.33123044402938
  H   3.74622986378512     -0.57443771421375     -2.33452303355930
  H   2.10392963887823     -2.62895307352556      1.04425367286844
