29
Coordinates from ORCA-job 24525optt
  C   1.16701981220993      0.33227449446012     -0.65022412638602
  N   2.42324621295598      0.06951021957835      0.05005750102580
  C   3.10869071066121      1.14304714985678      0.53177761500001
  C   4.41556078832998      1.08664128290161      0.84254788834900
  C   5.12460096625467     -0.11940941889305      0.53902161012082
  C   4.47817997041528     -1.24048253548934      0.08562012316056
  C   5.21513797777572     -2.47583273528423     -0.26060625871846
  N   4.75339506697643     -3.57664897046217     -0.69414892131634
  C   6.69365614678158     -2.41883165682506     -0.08249373948553
  F   7.30685369657333     -3.54265648227425     -0.40636532079380
  N   7.42742040475065     -1.48548500450527      0.33408253813743
  S   6.83423469990373     -0.01472668117807      0.77880571313275
  C   3.00567572725430     -1.21846162408522      0.01403747800303
  N   2.34091875276311     -2.30332406653419     -0.06451381040747
  C   0.92668503967230     -2.42565489250221      0.22232394170599
  C   0.70548813050159     -3.76622836770073      0.90565453172724
  N   1.42308844875389     -3.78098540878248      2.17397431623048
  H   1.23889298925626      1.30521481054445     -1.13322845781398
  H   0.30499095040747      0.32343876398637      0.01550522533148
  H   1.02959419434530     -0.42077893332149     -1.42079063169514
  H   2.53356196781551      2.05537959776378      0.62455955481152
  H   4.92582717076950      1.95199539252799      1.23849933220742
  H   3.73550152569784     -3.52051122857762     -0.73977760902253
  H   0.32620083065406     -2.39307375271852     -0.69200260579421
  H   0.58056989926708     -1.63873035186190      0.90016086214105
  H   1.01520941079243     -4.56016125699569      0.21437008446279
  H   -0.36081894211795     -3.88990695492032      1.10453834683954
  H   2.41742750874856     -3.68935892083014      1.99207349779735
  H   1.28818994183022     -4.65925246787748      2.65854132124921
