28
Coordinates from ORCA-job 24529optt
  C   3.57589863967398      0.11689829091699      0.87311350073020
  C   2.38219317586976      0.04356930227899     -0.07559167273986
  O   1.68681789926776      1.26342955262169     -0.13338367294146
  C   2.81894070302497     -0.44165816692893     -1.44612356312568
  C   2.79929286919788     -1.75370654324317     -1.84139598786652
  O   2.36479731657680     -2.76545673311596     -1.05560754967288
  C   3.25135637353551     -2.17798181645856     -3.12842169655667
  C   3.20095786922145     -3.62380288684688     -3.51786280727952
  C   3.72211358301815     -1.21984808023534     -3.95763596604454
  F   4.17259846312853     -1.48476510010688     -5.17588820586190
  N   3.77908969650064      0.09003417832315     -3.61081104138546
  C   4.23962999807607      1.23603116373158     -4.26986549473177
  C   4.78429655572534      1.34243463877539     -5.61619951318341
  O   5.17525390611598      2.39705271359239     -6.05746623674895
  C   4.04065426662581      2.25162710828263     -3.35698506152704
  N   3.49963891198938      1.81008274141001     -2.20853595843028
  C   3.34025879064704      0.49466672200669     -2.36254634727087
  H   3.24159649270017      0.45577507572247      1.85281169531176
  H   4.30855077198350      0.82627268170517      0.48554572146840
  H   4.05744555557021     -0.85809369147699      0.97482617681647
  H   1.64921899799442     -0.66152303153227      0.33301249955293
  H   2.22394073052812      1.88935214084215     -0.64533986692346
  H   2.05258578555133     -2.42799600250348     -0.20949855226723
  H   3.80284907705017     -4.22130572821559     -2.83289191163658
  H   3.57058320614155     -3.76822338798238     -4.52966716812505
  H   2.17830727064560     -3.99599933212191     -3.45730223392733
  H   4.82156071387309      0.42702549172007     -6.22374911500994
  H   4.27657237976674      3.29010869883897     -3.52553997062334
