25
Coordinates from ORCA-job 24534optt
  C   1.01162318069886      0.07440735093316      0.12033466296115
  C   2.52719078422116      0.16840091468254      0.19967980862243
  C   3.06359493454229      1.56908277778525     -0.05289500463908
  O   3.01329172442493     -0.36655730972899      1.45146292480604
  C   2.63571044099439      0.18890601149221      2.59942267942268
  O   2.00673533334403      1.19040325114622      2.74162190864688
  C   3.10154601285073     -0.69404779623765      3.75503863978665
  C   3.37421417498540      0.08139590292313      4.96050223989012
  N   3.59991463845330      0.67262897093072      5.91385494950802
  C   2.01002369661921     -1.76133721676641      4.00563690209657
  O   1.06369695596064     -1.86015550420120      3.28108331522666
  C   2.25130750496259     -2.62311161005979      5.14467750759098
  C   2.49661350079349     -3.31135526221811      6.09281421759884
  C   3.14853909408708     -0.80585318034285     -0.80852071406785
  F   2.77142293189105     -2.06485604365063     -0.58761867886992
  F   2.76893570986036     -0.48154964968252     -2.04746916078947
  F   4.48257198101333     -0.77619210954556     -0.77438374303016
  H   0.56165209189685      0.78843785041747      0.80456581885229
  H   0.68009418692781     -0.92987965767826      0.37950366013194
  H   0.69251601757831      0.30747662051485     -0.89470163919396
  H   2.58665563613603      2.27275170777593      0.62362348092600
  H   2.84192334564534      1.85771745797786     -1.07984673631728
  H   4.14234652931202      1.59805493007880      0.09482830010587
  H   4.00921722321556     -1.23293493444421      3.47007218549698
  H   2.70566236958521     -3.92583347210196      6.93771247523758
