34
Coordinates from ORCA-job 24535optt
  C   4.36642219065117     -1.38439363677817      2.11060317549163
  C   4.47210844699769     -1.29230439038199      0.59530124609831
  C   5.71322116305517     -1.97494029755514      0.00556389929868
  N   5.73007183066613     -3.39749423547974      0.36700396637637
  C   5.80940571345313     -4.32043840204714     -0.68210721037593
  N   6.83185878598241     -4.98274695207802     -1.01114664613434
  C   8.08219833124297     -4.61461534523146     -0.35938358196396
  C   8.54338299110183     -3.15496116518317     -0.60422848003086
  C   8.22960038634298     -2.63704221040823     -2.00156622084362
  N   8.19399748711427     -2.15066027636201      0.45804058858549
  C   9.27472454074727     -1.60083275770184      1.10847913385414
  F   10.28551900264114     -2.45737788570776      1.28078234244555
  C   9.38734791149069     -0.35416306777414      1.57521126250008
  C   8.28790563827755      0.57545399044371      1.38603118342400
  N   8.25889000914561      1.81459717163112      1.70789709409196
  C   7.09133228957385     -0.05851253055434      0.84220230116133
  C   7.03919461391197     -1.33071871952179      0.41856448081926
  H   3.42485892059125     -0.95596496099752      2.45321017723489
  H   5.17741690342997     -0.85363246575314      2.60895267785029
  H   4.39243751104634     -2.42799287748033      2.42581102588515
  H   4.42109444872187     -0.25584359303164      0.25842771726693
  H   3.61754437097779     -1.80151455784583      0.14460442345655
  H   5.62090072630813     -1.90603952743810     -1.08150027802427
  H   6.43250571274830     -3.57900965648420      1.07139462943665
  H   4.88555616618986     -4.46208308402942     -1.24217687572912
  H   8.85361532086637     -5.25737017638548     -0.78313980718920
  H   8.07699181927616     -4.81056531381331      0.71840261400419
  H   9.62525286224214     -3.21599879239181     -0.54270490982906
  H   7.16506005874028     -2.59590791425925     -2.21557022121741
  H   8.67389227543658     -3.31381556803328     -2.73237499810153
  H   8.65615123066941     -1.64286427222181     -2.13686784969636
  H   10.27998580118284     -0.07575579421362      2.11702403234670
  H   9.15154738564342      2.10569320058989      2.10358632608702
  H   6.19600715353338      0.54381606447898      0.85967278142051
