29
Coordinates from ORCA-job 24538optt
  C   0.79859260445455     -0.09199007450852     -0.19176786192936
  C   2.29956450924708     -0.38059715561608     -0.25113532037146
  N   3.14096729832603      0.81362992227269     -0.34847357575466
  C   2.70678293173787     -1.26605595635390      0.90150930003660
  C   3.21877129852249     -0.80350014773940      2.05402558284348
  O   3.31577106477268      0.49190825806519      2.37173284599240
  C   4.65750129040791      1.00535333730204      2.43532251879567
  C   4.58841042338627      2.41560950835764      2.79007056306780
  C   4.53842320243884      3.57528742934199      3.07759398737152
  O   3.65569066329741     -1.59095995725283      3.06128277883051
  C   3.53914820410741     -2.93804139346459      2.96550163616640
  C   4.09255676114469     -3.64931653824840      4.15938271239641
  O   3.48074460571475     -3.23318062111716      5.35810818994848
  C   2.97027598802604     -3.49408304741891      1.89124942349018
  F   2.83775237542739     -4.81431239205799      1.81879914775792
  C   2.48232701261995     -2.70591347051497      0.75621637524180
  O   1.94799480358803     -3.21421326374604     -0.20883672094801
  H   0.49107237315041      0.47519137999070     -1.07174777474547
  H   0.56546869773291      0.49516770590465      0.69933329722940
  H   0.22895669519371     -1.02140425938580     -0.16154001746596
  H   2.49234795527995     -0.97968737694865     -1.14332714695668
  H   2.82618333965169      1.52384491648447      0.30403855429361
  H   3.05516402679732      1.20677403873026     -1.27802059263530
  H   5.11608532176349      0.88053319026384      1.45096081351881
  H   5.22659513683681      0.45332871748785      3.18585938870312
  H   4.49252790397800      4.60603031883031      3.33826892902755
  H   5.17662764379444     -3.48848819728923      4.19073307168068
  H   3.90773026692451     -4.71518257192564      4.05219186101609
  H   3.60696560167736     -2.28473229944349      5.46366803339842
