33
Coordinates from ORCA-job 24532optt
  C   1.68594087227788      2.13127816036267      0.26353780938321
  C   3.00629288304016      1.37216640210197      0.24087932962178
  C   3.53124704411462      1.19135615883802     -1.17302956793755
  N   4.79546438743125      0.47278351153081     -1.18015742414498
  C   5.38614093794188      0.31527673380846     -2.48930605093123
  C   6.25310809657843     -0.96232698907473     -2.65530728861040
  N   6.72826307980940     -1.40372687624037     -1.35727430659920
  C   7.38203240056283     -0.55254538177747     -3.65838109614467
  N   8.59380334925634     -1.32835581754478     -3.46448559846114
  C   7.48325158207051      0.93895800402720     -3.45072768564454
  C   6.39101724881451      1.38852781728155     -2.81253619569994
  O   6.15511891788836      2.66525028301022     -2.49423676547784
  C   7.11743518258408      3.55753382258946     -2.81239796059749
  C   8.24896471965266      3.21368664764027     -3.44218145388006
  F   9.14967547836236      4.15481241979445     -3.70533891012281
  C   8.54272353989099      1.83653962819823     -3.87276257698870
  O   9.54217360639757      1.52284816845903     -4.49062839795399
  H   1.32322249191078      2.26765398552500      1.28212318390526
  H   0.91580870843710      1.59760590120452     -0.29650442202936
  H   1.79884833789786      3.11989925539759     -0.18583891724203
  H   2.87891478994290      0.38949873416921      0.70505028604509
  H   3.76187799548217      1.90007469287207      0.82627672040870
  H   3.69621902014178      2.17436439931529     -1.62308296171401
  H   2.76855990251228      0.68642011948010     -1.78838603506183
  H   4.72866631697121     -0.42937157585660     -0.72303204843277
  H   4.61977283533978      0.31747751166874     -3.28146061953562
  H   5.66365757716060     -1.77665673289804     -3.07627316533560
  H   7.21969963293711     -0.66394970714348     -0.86556675802029
  H   7.35568184855387     -2.19105689287045     -1.46995577485704
  H   7.03449566826113     -0.75167441693411     -4.67627734976022
  H   9.03838312822386     -1.06124728190389     -2.59216998830044
  H   9.25784533906721     -1.09294859357519     -4.19446512884691
  H   6.88569308048636      4.56784790854423     -2.51110288103331
