36
Coordinates from ORCA-job 24536optt
  C   3.66541680374528      3.06116099278853      0.47955297500604
  C   3.11170197891448      2.59515010998888     -0.86113883566407
  C   3.14969660958741      1.07969244153698     -1.11717170577340
  C   2.27521951116019      0.34795404105652     -0.09550014173189
  N   2.66664837167268      0.88939485383659     -2.49440336169535
  C   4.60764281343681      0.56148849394006     -1.05532538874786
  C   4.73681253291113     -0.95361859591336     -1.19048312359824
  N   6.14474200638585     -1.30807613935865     -1.06480374425080
  N   5.41244113134517      1.20884785658312     -2.08817199364839
  C   6.34083017297162      2.19429107935426     -1.76208307708666
  C   7.24140976852647      2.05223714684551     -0.70931654975158
  N   8.15603662682868      2.97635955880189     -0.40641847090442
  C   8.24757264945783      4.06939958208618     -1.12412457196131
  O   9.18552578186419      4.99281068385685     -0.82334338910941
  C   7.39399208921098      4.29350850565328     -2.20504766054456
  F   7.50074618119129      5.41965342561608     -2.91467904445074
  C   6.43826428309620      3.36488611799771     -2.52424323872476
  H   3.49340009237542      4.13022984622312      0.60320599395525
  H   4.74150029816765      2.89805175565051      0.55061524913116
  H   3.18490494313211      2.55130023690023      1.31577084779086
  H   3.64787295002265      3.09783705790757     -1.66971950464570
  H   2.06519288588252      2.90680099386755     -0.94502807726196
  H   1.30295746696121      0.83931928848153     -0.01748093274700
  H   2.73257778358125      0.33493544565623      0.89561852650923
  H   2.10375054270339     -0.68575516949652     -0.39849173308432
  H   1.82557100228949      1.43392546612400     -2.64974048224497
  H   2.42910974130377     -0.08098469971209     -2.66793398466488
  H   5.02008244161321      0.82413841771044     -0.07981272706290
  H   4.29028218932743     -1.27184801532113     -2.14365615787482
  H   4.19133275867069     -1.44438121821817     -0.38360200116804
  H   6.66603106124730     -0.87238607597041     -1.81842117757678
  H   6.27906728145027     -2.30847498391759     -1.13522902081522
  H   4.82538801578057      1.44480842848601     -2.88001781125032
  H   7.23407310170648      1.15374192759341     -0.10248382077900
  H   9.66808523990992      4.65304615875373     -0.05832841650600
  H   5.77012089156831      3.55555498461114     -3.35556344706718
