30
Coordinates from ORCA-job 24540optt
  C   0.99998829137432     -0.07335738262690     -0.08582296534392
  C   2.51673411632399      0.04469197352859      0.02341556336468
  C   3.04888850014539      1.22802836367375     -0.78765682922150
  N   2.63191434845674      1.19509785011089     -2.18891025620457
  C   1.69721275009207      2.07207303127495     -2.67071428165661
  C   1.31055707882845      2.02462215125131     -3.96104240636720
  N   1.83254068204123      1.09575714426342     -4.82585856185565
  C   2.69456536061779      0.28468254188445     -4.37170962717834
  F   3.21145526142834     -0.62592288287007     -5.17568186561424
  C   3.21008934831284      0.22865429085477     -2.99263633387274
  O   4.03771077436451     -0.56034474936001     -2.58898559784215
  C   2.99679806850944      0.22303129534054      1.47047482209458
  O   2.39023705565240      1.33593685595844      2.10348811644856
  C   2.80969645939182     -1.05060036451356      2.27827871971913
  O   3.35777334074997     -0.92321099988448      3.59305560875152
  C   4.68024060209039     -1.07062036862239      3.68994723130973
  O   5.42019926514673     -1.30041068380385      2.78063703056943
  H   0.69674882637421     -0.23712555901917     -1.12036938060077
  H   0.50869268608738      0.83966973195362      0.26081116236841
  H   0.61748594053952     -0.91330549828966      0.49514694880201
  H   2.98282403256703     -0.85972843637852     -0.37353760879575
  H   4.13908477866867      1.21829149132957     -0.76911887156078
  H   2.69196326107326      2.16377254125817     -0.35746377331036
  H   1.30397702900028      2.78839163236575     -1.96410959750269
  H   0.58145813822455      2.71398489311785     -4.35720910266118
  H   4.06485851338119      0.45074009846698      1.45374259164962
  H   1.48995135842510      1.10813773077720      2.35784600578029
  H   3.28020559637706     -1.88962031568079      1.76500590304311
  H   1.75216386363597     -1.26424049024930      2.43678584574785
  H   4.98798467211928     -0.95507588611154      4.73519150993956
