30
Coordinates from ORCA-job 24544optt
  C   1.27301632311189     -0.42543837984729      0.16229791596716
  C   2.69593464774888      0.04372769599709     -0.13639930832593
  C   2.96464957354414      0.20047830742478     -1.64557510024003
  N   2.27299729598645      1.31645296808933     -2.24754779755641
  C   2.72678839983192      2.62353281728709     -2.33984768010205
  N   1.93452640698849      3.46315382453730     -2.86726450863726
  C   0.73291318399056      2.70452641842470     -3.21230628027815
  C   1.01076346384439      1.26185338268819     -2.81805245628244
  N   0.34564484284468      0.18996369256184     -2.93013899188674
  C   3.09905467977609      1.31158708985054      0.58137173225904
  C   2.30233064694141      2.43712494353715      0.72198595587958
  F   1.05914995301600      2.44789606982513      0.22090253386341
  C   2.74514860742344      3.59028570108939      1.35021819956722
  N   3.96661430878187      3.68069203439104      1.85324217013984
  C   4.76785769265364      2.63162437664525      1.73545875141073
  C   4.38473013350361      1.44965699941113      1.11154958083759
  O   5.23584606027001      0.39717006273711      0.98306669958671
  H   1.11941004970635     -1.41058365476018     -0.27832527822082
  H   0.52460791031768      0.23924075502409     -0.25754145302096
  H   1.11578374591290     -0.49714640725075      1.23926490667505
  H   3.38410980900390     -0.73207170157577      0.20289946834634
  H   2.63980472461769     -0.70179556840851     -2.16603553300977
  H   4.03563549470488      0.33376581810374     -1.81120898498829
  H   3.71683236954348      2.86456342947282     -1.96785907747538
  H   0.51392658012719      2.79176892087853     -4.27765343444123
  H   -0.12732041897118      3.09003262518986     -2.66046123874378
  H   -0.54272018497635      0.36064862639845     -3.39242771699679
  H   2.08626576062347      4.44643814818460      1.42654594762491
  H   5.76826007594818      2.72497763375804      2.15033777691536
  H   6.07643786318428      0.60287337033530      1.40550320113310
