27
Coordinates from ORCA-job 24541optt
  C   0.97336652124469     -2.89566485590045      0.49610338243599
  C   2.37599109581536     -2.40169034428530      0.75970861460347
  O   2.83522384283003     -1.73069992556999     -0.40163948829104
  C   4.10534079473477     -1.18998967388965     -0.24864006378493
  C   5.24470975231019     -2.20427658740443     -0.50804419007550
  N   5.82712393933230     -1.79998650157140     -1.78890542437595
  C   5.23953275946033     -0.73530020944168     -2.08649510757521
  O   4.27467457656700     -0.23603994364401     -1.28988080087331
  N   5.49417672328850      0.04435868966347     -3.24032991196098
  C   5.12528056641140     -0.39636734104978     -4.48635594594733
  F   4.55777340260397     -1.58427477759030     -4.50054699764597
  C   5.31707781769763      0.34006714846941     -5.58878422995243
  N   5.90671403501332      1.58584489588907     -5.48131433897541
  C   6.26666613096824      1.99160763242602     -4.34778346088126
  F   6.84191909012596      3.18394997924778     -4.22847557550478
  C   6.13736230428069      1.27951289973224     -3.06639045210857
  N   6.53140315480654      1.64467588680842     -1.92217142734953
  H   0.58796628941715     -3.41806771369221      1.37150801300982
  H   0.96578432344086     -3.57935514615349     -0.35196649886890
  H   0.31609330618292     -2.05691104393674      0.26999383518567
  H   3.04179102884016     -3.23978432133778      1.00047006554507
  H   2.39367402056040     -1.70899237506106      1.61036948705870
  H   4.18159900465916     -0.66429189687056      0.70772975080103
  H   4.85063563414432     -3.21873798935917     -0.57331957805468
  H   6.01863197142878     -2.17437453214679      0.25835277936261
  H   5.01627569913683     -0.01095939622971     -6.56157929764420
  H   6.97121221469840      2.55874744289811     -1.96961313813231
