24
Coordinates from ORCA-job 24566optt
  C   0.96575461307855     -0.05042395085535     -0.06635746625834
  C   2.45192388858615      0.07102635869906     -0.06640431335082
  C   3.39679578460386     -0.94878355586448     -0.03813174180092
  N   3.15993401801894     -2.27867552771880     -0.04990283791102
  N   4.72081399784771     -0.52720614914870     -0.02749207931161
  C   4.63753497256624      0.77734233777842     -0.05812578238877
  C   3.22831589338130      1.23946485760320     -0.09258979461254
  N   2.88130823404911      2.50896605552552     -0.14389697477996
  C   3.84686184225195      3.41678028373949     -0.16324526484182
  F   3.43107154631996      4.69053941115254     -0.23376997805341
  C   5.19557173977575      3.18035575081771     -0.11945612639376
  C   6.21765443928860      4.18043663875789     -0.12764317343681
  C   7.50443602311725      3.83096650246991     -0.07207217568899
  O   7.88733833459350      2.50025290436242     -0.00202359092638
  C   6.97195198033355      1.57328167897884     -0.00018445362273
  F   7.49828655600937      0.39211558123505      0.06940812906711
  C   5.62519820793866      1.79057780391317     -0.05863450448651
  H   0.58519490547042     -0.49407453150579     -0.99008302923253
  H   0.51879244806109      0.93813306858700      0.03586842985719
  H   0.60920949814630     -0.66091240119082      0.76833713440692
  H   2.22854627061554     -2.62435684156706      0.09620035029554
  H   3.93457472185134     -2.89750474231721      0.11554445629682
  H   5.95761475017566      5.22795934962026     -0.17618008435457
  H   8.36431533391914      4.47773911692771     -0.07116512847209
