29
Coordinates from ORCA-job 24565optt
  C   2.85088719300380     -0.60384657340009      1.33934230697630
  C   2.47686837255080     -0.03140325941015     -0.03294005819237
  C   1.02966663011295      0.17004690757501     -0.12853184109406
  C   -0.15246248054989      0.35097608517742     -0.19568653149823
  C   3.22831072490257      1.27943090195194     -0.35909307064329
  C   4.75324899710490      1.07331418572123     -0.37405811544488
  N   5.15384511681190      0.11764018022333     -1.39058166312090
  C   2.87901982878635      2.43823824323869      0.60496512456525
  O   2.78545920090193      3.63797896696333     -0.19935124036087
  C   2.61214902853905      3.22357696465446     -1.45594602895281
  C   2.78400443499226      1.91259956587757     -1.65771867672285
  C   2.54670813253189      1.43489119834330     -2.98333462331013
  F   2.59264139709540      0.13080171847614     -3.21048755666697
  N   2.24185719330061      2.15521337022586     -3.98536899098635
  O   2.15958382045145      3.51985162078603     -3.76734365509620
  C   2.27545975966248      4.13185369989146     -2.54036625386694
  N   2.11540804598930      5.37032325384235     -2.39503154154715
  H   2.25045612342077     -1.48630468255161      1.55211447161079
  H   2.66403303827880      0.12623023357191      2.12903278955933
  H   3.90219380289810     -0.88962915816789      1.37213666180063
  H   2.75032625593179     -0.75261289888187     -0.80883953848389
  H   -1.20340749508060      0.50222080660122     -0.26560099816358
  H   5.08066664840085      0.81659952694979      0.64139529200530
  H   5.20667025096799      2.03718296397551     -0.61505729026824
  H   4.99515465882109     -0.83904674318598     -1.09969521214389
  H   6.13422605594350      0.20763478333463     -1.62012267262298
  H   3.64089037938209      2.61027063953424      1.36334058241428
  H   1.90663411795421      2.28546276347904      1.07776237696523
  H   1.88650076689359      5.81750473520309     -3.28193404671050
