32
Coordinates from ORCA-job 24578optt
  C   0.96435022518099      0.25751244062585     -0.29665355273943
  C   2.45683595388489      0.04129936634374     -0.06408564709970
  N   3.23340799376620      0.99884323562178     -0.87542237694415
  C   4.36513828815106      0.35512415131229     -1.55650175805923
  C   4.49697033680916      0.79806550279606     -3.00837961019112
  C   4.63881488121429      2.31747657614081     -3.14021233697279
  C   5.76617098161220      2.85206753834578     -2.37851373978216
  C   6.68769385816854      3.26887762647292     -1.73531329910423
  C   4.03247754940688     -1.10087983467182     -1.41215332443508
  C   2.97733140196539     -1.28949037569438     -0.54409370591868
  C   2.57075173810504     -2.58580372479294     -0.23228558235440
  C   1.49610503028545     -2.88989717952038      0.77319291083376
  C   3.23759353026428     -3.61912705914586     -0.88373296390373
  O   2.95740306509776     -4.93528227065238     -0.70953719927910
  C   4.27427008386423     -3.29238216576669     -1.76540507644901
  F   4.90034393899846     -4.29473255038554     -2.37867935596220
  N   4.68301795501765     -2.08523151006534     -2.02696778899066
  H   0.70404592437060      1.29028070393059     -0.06218026426230
  H   0.34866585500977     -0.39688477135771      0.32110072467323
  H   0.73151989080013      0.07864496668100     -1.34689042284562
  H   2.67084154101053      0.15708324866289      1.00793706298566
  H   3.51950775471720      1.80909219839483     -0.34442906844531
  H   5.31642289943553      0.56166596636935     -1.04890901047644
  H   3.60447686140194      0.48449658250845     -3.55459131516176
  H   5.35828317020830      0.29416451685748     -3.45013773333773
  H   3.71948112825164      2.78969973047623     -2.78618336899785
  H   4.75653395113621      2.59028805066996     -4.19045576908920
  H   7.50971210862607      3.64777590096765     -1.17679516472799
  H   1.34186619793975     -2.04431928721695      1.43988001681740
  H   1.76787094239647     -3.74391867564330      1.39840137634492
  H   0.54044963953492     -3.11154722893390      0.29072206993609
  H   2.16564532336841     -5.03696166933045     -0.17272472606115
