25
Coordinates from ORCA-job 24573optt
  C   1.53118567568253      0.81281955453838     -1.41323708621030
  C   2.69545541268025      0.34108593016910     -0.60723565442685
  C   3.09837969483897      0.88792214207224      0.55073892597793
  F   2.49187383406785      1.90103015180765      1.12014791233534
  O   4.12915421354647      0.52540926456444      1.30010785408933
  N   4.92813932485936     -0.52430632555776      0.91259586203922
  C   4.61832574098916     -1.13900611112672     -0.16215468739182
  C   5.49156109707370     -2.29659640801387     -0.58114926787004
  N   6.58707385754372     -2.58077401817421      0.31707956045182
  C   6.17911061275058     -3.50895812492228      1.27542271324237
  N   6.68132254568629     -3.85091658840420      2.37189739347840
  O   5.03975727128070     -4.10821714527427      0.81940079455155
  C   4.74984066733049     -3.63375545555801     -0.48541005992759
  C   5.26416129180864     -4.63571436150971     -1.51445177344706
  O   5.66966262392204     -4.32023365112018     -2.59258996223082
  C   3.46761086656358     -0.79791690226562     -1.04320164825444
  O   3.23199601226371     -1.45541941142931     -2.03766602914616
  H   1.05672253802644      1.67982860288975     -0.96136993174632
  H   0.79985513461020      0.01047501013734     -1.51301430443980
  H   1.86350612326498      1.06695318798343     -2.42031591417009
  H   5.81415180486064     -2.14230186106362     -1.61276091140938
  H   7.12517891706980     -1.80282302446835      0.66748335078361
  H   7.51341994526009     -3.31180228413982      2.58714262067405
  H   3.66947363654279     -3.53981930528289     -0.60021871913169
  H   5.22708115747695     -5.68796286585147     -1.17824103782123
