30
Coordinates from ORCA-job 24587optt
  C   0.83817744299118     -0.15327592675234      0.02309827037339
  C   2.35038527930598      0.05128554734075      0.01091068923960
  C   3.01839946316900     -0.80608074068322      1.08044590194992
  C   2.92251128718359     -0.27075913509266     -1.37824037321675
  C   2.41698488590939      0.64448759966023     -2.48113658682949
  O   1.95728018162642      1.73752639030486     -2.29417869177351
  C   4.41382487208317     -0.18791905879347     -1.45134722557073
  C   5.26930026370502      0.83117502044784     -1.32731891353776
  C   5.02647818111500      2.27456133071340     -1.07563726170354
  C   5.44113979962871      2.68145838048276      0.32011309201873
  F   6.75055818325628      2.45149137558638      0.52914664091540
  F   5.23030530829161      3.98099380034737      0.53002170678645
  F   4.77215893634044      2.00691739001666      1.25733321790060
  N   6.55109690872792      0.29380607030971     -1.49060717704161
  C   6.45734127948408     -1.07700108659982     -1.65432064626392
  N   7.31077796661206     -1.99347687601778     -1.78351606645402
  O   5.11531422640318     -1.35177509192339     -1.67196423350954
  H   0.43438173642774      0.08402437441066      1.00789630783395
  H   0.59376691525325     -1.19700944362887     -0.19198189271076
  H   0.33747536688921      0.48087821799379     -0.70745450990028
  H   2.55838010692679      1.10442195980183      0.21720954807001
  H   2.82162354011388     -1.86585380414501      0.89967545676950
  H   2.62533332094981     -0.55425226070927      2.06588652476117
  H   4.09860948516783     -0.66121877251997      1.10287676777759
  H   2.66168204275204     -1.29802336705913     -1.65485220603913
  H   2.55416891744698      0.25659233823381     -3.50746885315057
  H   3.96789156679418      2.50931283079928     -1.18960439387783
  H   5.59306815767520      2.89635520142308     -1.77261149659009
  H   7.39748011077159      0.74511417144968     -1.18873487551145
  H   8.25810426699835     -1.63275643539716     -1.77063872071532
