25
Coordinates from ORCA-job 24583optt
  C   1.45238855189383     -0.78102865885191     -0.75088154769889
  C   2.60898415143725     -0.07640881612449     -0.03240740988616
  N   3.79950085699232      0.12902733816829     -0.86001362358333
  C   2.15898207322314      1.24535161469471      0.43798188556041
  N   1.80756010261571      2.28160098677478      0.77550612274260
  C   2.95401423779620     -0.89660934118208      1.24502443976750
  O   2.08558421909683     -1.34646645052946      1.93984067706925
  N   4.29634570093641     -1.01268026799610      1.47567306956201
  C   4.85320395497588     -1.68577277974385      2.57048783480818
  C   4.42972074743784     -2.94467399700292      2.85150468833757
  F   3.56295463749583     -3.54611498261397      2.04340716857224
  C   4.87168425384992     -3.77324611766997      3.94977922481968
  O   4.48565531803974     -4.88085014180841      4.19807305626400
  S   6.15156817610195     -3.08056802669734      5.02206916974578
  C   6.50566084380906     -1.52236291945543      4.35823437911094
  O   7.46794771543409     -0.81489450014548      4.98224933678623
  C   5.87480950810326     -0.99404927639709      3.29318274460869
  H   1.13875553916428     -0.18828729105195     -1.60913020632619
  H   0.61545391766532     -0.92179799890305     -0.07135576152253
  H   1.79300087846722     -1.76022480410931     -1.09074734716637
  H   3.67964911559916      0.92942984673254     -1.46931454878049
  H   3.94859953363753     -0.68576072844039     -1.44657486721439
  H   4.89003519537382     -0.43022493151425      0.89872256563665
  H   7.82479582421364     -1.28947547098563      5.74168008026769
  H   6.14214494663971      0.00808771485280      2.98600886851890
