26
Coordinates from ORCA-job 24589optt
  C   2.96135599478759      1.77712437164889      0.65950744213335
  C   2.50009834777966      0.65914705627447      1.57644547092321
  O   1.08943787814683      0.53391823497956      1.57808641608873
  C   3.08549961177811     -0.70743887409171      1.21151011717086
  N   4.55689732291259     -0.73490729357074      1.20919675849687
  C   5.20190274521596     -0.43192019352785      0.00027721444898
  O   4.59102643750989     -0.40713388407062     -1.03575884979945
  C   6.59906166678510     -0.03722748428847      0.04727802120780
  C   7.72013245900333      0.37394047769623     -0.01333785715157
  C   5.18980996880760     -1.02420009713383      2.39826680284831
  N   4.59395311142734     -0.87195013311413      3.51547553073339
  C   5.26466276594391     -1.26381670174891      4.66943239560013
  N   4.80569375078983     -1.25436525126562      5.84387998501841
  C   6.65773763539444     -1.69431622301430      4.43235880718508
  F   7.39523504548563     -1.98112520145456      5.47442394764030
  N   7.21903185946222     -1.80580616613240      3.30433888700352
  O   6.41780092953717     -1.53119272679052      2.20814074915686
  H   2.46999739144895      2.70614680093045      0.94675055046980
  H   2.71734987536289      1.54865582918444     -0.38090510596228
  H   4.03986420717803      1.92977252967303      0.72412221821031
  H   2.77291158606233      0.88582715467527      2.60794097680282
  H   0.77398592190761      0.53616570891637      0.66785855470748
  H   2.76609862703776     -0.99189764356093      0.21029665406233
  H   2.73313168053003     -1.44591910897957      1.92653047825856
  H   8.72347521877597      0.72792694370490     -0.05788326049421
  H   3.84084796092914     -0.92240812493946      5.83476709524034
