29
Coordinates from ORCA-job 24602optt
  C   2.83717456666135     -1.05286811152485     -1.57090537632388
  N   3.20914241576058     -0.12359082044178     -0.49796371365076
  C   3.69013783383469     -0.69081789171169      0.68274680291318
  N   3.49608689907780     -2.01726675694484      0.75984440765564
  C   3.91924784257294     -2.67672551347166      1.81638585550561
  C   3.66765720016254     -4.16182089768581      1.84181902692093
  O   3.00307383758222     -4.61936170201924      0.69999096809727
  N   4.54486425809985     -2.14586801414474      2.86551378346827
  C   4.74456679761864     -0.86112910914632      2.77018807294639
  F   5.40238404205379     -0.30464704655691      3.77653336278293
  C   4.36736886715462     -0.02627670739475      1.71943270953737
  C   4.77710664536754      1.42414503454721      1.80810296937182
  O   4.09654640728981      2.09686346313536      2.84714194366661
  C   4.55280269404727      2.13778612397726      0.49224868906529
  N   3.12869281538975      2.12446065888624      0.19948362441600
  C   2.56732337188976      1.12883260458051     -0.57078390226264
  N   1.54847879098984      1.24263758800851     -1.32115316067833
  H   1.87287005488277     -1.52282351079638     -1.38048895669201
  H   3.60439280021009     -1.81568812688018     -1.65418061236698
  H   2.76864698462843     -0.48035679107596     -2.48932557458264
  H   3.08964839658472     -4.38789442079774      2.74378638807792
  H   4.63580929980207     -4.66221985414053      1.94659684372558
  H   2.81180580332058     -3.84451214535667      0.15368823964003
  H   5.83342176624488      1.46926552752969      2.07826684018370
  H   3.15837342016889      2.09811283797781      2.61949378140991
  H   5.12312390903610      1.66838779453925     -0.31290293811545
  H   4.87530129206947      3.17216750067609      0.59497698431003
  H   2.68960650890090      3.02099740226229      0.07101805957720
  H   1.22334447859802      2.20321088396985     -1.37155511859902
