31
Coordinates from ORCA-job 24607optt
  C   0.56338155502862      0.22648853463400      0.11986187240588
  C   1.98323857461612      0.52233236368980     -0.32424833732363
  O   1.91824424502581      1.30615756123916     -1.50583714797619
  C   2.86731514319768      1.18646705129704      0.74613852043416
  C   4.39431166531110      1.11805213102935      0.44049032899305
  C   4.89124622821613     -0.05611453166733     -0.37872427677394
  N   4.72935202307676      2.40895583573324     -0.19529535466810
  C   3.78132399890751      3.19195006735348      0.11637821664067
  N   2.73100162902398      2.64879706157129      0.82012211152661
  C   1.56459436078074      3.43217964994355      1.15212253248963
  C   0.65541725110438      3.79977796952176     -0.03925725772610
  C   -0.23106335450061      4.97336459326656      0.29579656104478
  F   0.49612614920177      6.06440194553882      0.59283972178790
  F   -1.02720440357328      5.29376359810292     -0.72447124536990
  F   -1.00845632701667      4.72349078780307      1.35450136584149
  C   0.83219509579197      2.75712949904116      2.23601668475438
  N   0.28337492579673      2.20599673760621      3.07612697229387
  H   0.02964597718705     -0.26639564888738     -0.69205527154003
  H   0.00965297834223      1.11944313360284      0.39968317133695
  H   0.57202576108252     -0.43447705331060      0.98689808168244
  H   2.44950049569633     -0.44379033957658     -0.54604272323250
  H   2.81257005602859      1.49621014265940     -1.81426919094349
  H   2.64645367905077      0.73272750124528      1.71386203196144
  H   4.91965764763661      1.11061269480726      1.40214411200989
  H   4.46123607686600     -0.06662933613575     -1.38181562264927
  H   4.66348186771773     -1.00610880233585      0.10691824897517
  H   5.97175613437003      0.02716101902659     -0.48490132486251
  H   3.76414466285486      4.25038114522896     -0.12974300027817
  H   1.92836639881254      4.37411597120425      1.57668502020664
  H   0.03513824633498      2.96970753202419     -0.36631199826114
  H   1.28597125803100      4.08685118474328     -0.88061280278001
