32
Coordinates from ORCA-job 24600optt
  C   3.13638224679382     -3.03001035244924     -0.31715427328908
  C   2.50242444584163     -2.16672775937855     -1.40454278327511
  C   0.98084773941038     -2.22642496344328     -1.31549703244837
  C   2.96889522959825     -0.71217408845054     -1.33016328534858
  C   4.47981682818590     -0.51987444684574     -1.42081217265083
  N   5.05335537586798     -1.13111629645394     -2.60851573583110
  C   4.96761006128206     -0.51126931411532     -3.78272926776799
  O   4.49157148359093      0.58616112477050     -3.97177602079932
  N   5.52359617211467     -1.23940560372841     -4.92720353691930
  C   5.47965531230833     -0.52344080094904     -6.11479952793282
  C   5.95038043790584     -1.04298263169008     -7.25318509266024
  F   5.91218112494636     -0.34300292787032     -8.39474415534225
  C   6.51330813243636     -2.34820800333880     -7.29583834250528
  C   6.54924900219311     -3.02893635958975     -6.14493330439687
  F   7.06452337011070     -4.25852485553018     -6.08565764370167
  C   6.05196269422155     -2.53270186901988     -4.86634249722960
  N   6.09615817367670     -3.22222004299767     -3.78584080453314
  H   2.72796557280351     -4.04130697234055     -0.33944011894473
  H   2.93461654574921     -2.60859814239888      0.67197960694375
  H   4.21824516365012     -3.11262764563051     -0.43428759769873
  H   2.80466493659107     -2.56855474071573     -2.37763247922378
  H   0.64041087366137     -1.85220443650471     -0.34628649633311
  H   0.61918457287747     -3.25012313435879     -1.42329661629772
  H   0.51440670338410     -1.61735654752906     -2.09165167494189
  H   2.62775353803747     -0.27572467874847     -0.38494515385876
  H   2.49916187815851     -0.13942824141753     -2.13371432738878
  H   4.98036310942705     -0.96596781263773     -0.56199528006506
  H   4.71635151554370      0.54381988499044     -1.43444042069659
  H   5.43729958930868     -2.07871586342057     -2.60648831804094
  H   5.04662638525975      0.46079764251202     -6.04101859919741
  H   6.89626209750251     -2.76513253151261     -8.21728752511444
  H   6.51176968756081     -4.13001758920705     -3.95775952251021
