29
Coordinates from ORCA-job 24610optt
  C   1.34108921963011      0.91266812736229     -1.24326428326600
  C   2.67383692616332      0.45975961024011     -0.66059428775780
  C   3.20191576336598      1.43111648114074      0.38794313903188
  C   4.53610871646552      0.98423818655364      0.96672480381118
  C   5.04662550979277      1.92083001748708      2.04441422668904
  O   4.26887942594305      2.73454315494737      2.53041364926847
  C   6.45285284120850      1.86969138867557      2.46551535359814
  C   6.95982204821516      2.87318503380228      3.30758679810077
  N   6.19082485403820      3.78832101724218      3.90215137516001
  N   8.29141811033272      2.91481821332610      3.60171739533969
  S   9.47191385123302      2.31628662800240      2.56583297086009
  O   9.54715677001244      3.19306733237656      1.44414907427134
  O   10.63300628467593      2.11510549735481      3.37150436931188
  C   8.70395555570574      0.83967562654649      2.16027740952708
  C   7.36382214279377      0.82588178504398      2.08406983484375
  F   6.81327138094529     -0.32282801663146      1.67654647089810
  H   0.96662502110315      0.20793920189703     -1.98593858375537
  H   1.44017562510288      1.88740089115259     -1.72467224867804
  H   0.58735560671511      1.00715312286727     -0.45935039376775
  H   3.40923513461670      0.35036479167859     -1.46317192335964
  H   2.56156015613636     -0.53158653424388     -0.21121700862276
  H   2.47421001410378      1.53769485862284      1.19444121036732
  H   3.31071822743850      2.42631466710101     -0.05176092529967
  H   5.28992853997443      0.88254261047758      0.18248954678015
  H   4.43825086027853     -0.01032834899072      1.41237157394533
  H   5.20032078881594      3.74897169154729      3.66878488858391
  H   6.60349737362728      4.62115233278085      4.28444673998802
  H   8.63158863126280      3.49769004261846      4.35492770440745
  H   9.32903462030293     -0.02066941097910      1.98166111972339
