31
Coordinates from ORCA-job 24619optt
  C   2.94813278155104     -0.81750157317259      0.98902424468561
  C   3.53050342704553      0.32346173299196      0.15506847916381
  N   3.61432483418661     -0.05050495896493     -1.24557807703395
  C   4.47527702670830     -0.98015369834105     -1.72859860006112
  C   5.53555743602584     -1.48647543241249     -1.03358914111396
  C   6.48797393727448     -2.45622594398675     -1.51322604075098
  N   7.52353383083480     -2.90485656528139     -0.92473753604508
  S   6.24625538364519     -3.21896763741733     -3.11229714589689
  C   4.85902142052236     -2.38027952756524     -3.71053446029260
  F   4.48440031711509     -2.78027468910273     -4.91961700740213
  C   4.18296488402550     -1.41992725612435     -3.08145616612778
  F   3.13556378001823     -0.83994386464731     -3.69120562399569
  C   2.71106229655399      1.62594137049470      0.22766038583640
  C   3.48991159565043      2.78553382212544     -0.38871584147346
  O   1.52636961541336      1.38772877615472     -0.52083579128726
  C   2.31347047415844      1.94917513131240      1.66869722708634
  O   1.46105460346735      3.07890788428020      1.71176263783528
  H   3.45073590802377     -1.75115323180308      0.73906577038791
  H   1.88483799383378     -0.92761596848835      0.77308087354343
  H   3.07843588489680     -0.64239966473144      2.05706013674519
  H   4.53954429670614      0.56130460997334      0.50460159570932
  H   2.77958913270318      0.12844708581512     -1.78599424006299
  H   5.71642933903432     -1.14740136148159     -0.02222457077975
  H   7.63735257586437     -2.47353057393062     -0.00960852627277
  H   3.80853453614602      2.52946858625792     -1.39768328016545
  H   4.37408356480296      3.02528371901973      0.20592683310637
  H   2.85916801809030      3.67359065796575     -0.45416673200626
  H   0.89087469217704      2.07544079117208     -0.28591077690403
  H   3.20407510952919      2.09028751290593      2.29044590892451
  H   1.72738817502173      1.12963888059586      2.07905361753395
  H   1.98057312897380      3.88000138638612      1.59853184711403
