31
Coordinates from ORCA-job 24618optt
  C   4.11102435708028     -2.51532529589673     -2.17688791874411
  C   4.11057247549658     -1.15885799307353     -1.52522885233782
  O   4.37334398523187     -0.15087246346941     -2.14549686422036
  C   3.78410083219857     -1.10514091941175     -0.04931029275529
  C   5.03085099156592     -0.86882081863701      0.83028971141407
  C   4.58565133855554     -0.58257224287331      2.25999713691981
  O   5.69083078087503     -0.42315152244978      3.11221840560413
  N   5.90927264855798     -2.03025403251740      0.89576833951779
  C   6.70331016442204     -2.26891138214380     -0.06154237801599
  O   6.70399141126642     -1.40324467484600     -1.14325389545030
  C   7.25719251601820     -1.70564623351565     -2.32562970365763
  O   6.95367373166288     -0.82983900647896     -3.26704581426810
  C   8.03069008218389     -2.79470730858088     -2.48328376152852
  C   8.20711543714131     -3.60463625959802     -1.32127463548276
  F   9.00233779627599     -4.66486296171271     -1.47745923911780
  C   7.61108428092780     -3.39025014779476     -0.13075532608171
  C   7.77343112697960     -4.25489247134809      1.07599371078965
  H   4.51723630013407     -2.46173269932561     -3.18504409620628
  H   3.08229148585335     -2.88234606066483     -2.21833354716737
  H   4.67348246776743     -3.22678779252979     -1.56679047940101
  H   3.29617439166889     -2.02648476616879      0.27329657650989
  H   3.10316872913324     -0.26494464259234      0.10449465579799
  H   5.56311096309964      0.00714992900022      0.44490515258789
  H   3.94153235279318     -1.40445452869528      2.59875592678099
  H   4.01212839597104      0.34449384121793      2.29581908779666
  H   6.25406065446340     -1.19504468688802      2.97333786131753
  H   6.13532721586103     -0.35299397922263     -3.01670655058219
  H   8.46891495104034     -3.04898479054093     -3.43343205974100
  H   8.49780585121326     -5.04422583201451      0.89143200661112
  H   6.81864658820229     -4.70019140139014      1.35862633930314
  H   8.10764569635875     -3.65546685583747      1.92454050380759
