27
Coordinates from ORCA-job 2462optt
  Br  1.35539834559425      0.69078590489382      1.06275757370596
  C   3.16313544698896      0.52446002965161      0.51785316516905
  C   3.94031227842272      1.58918199845180      0.26126715846804
  C   3.45616314130021      3.01549335321989      0.36314134323315
  C   4.54580474727227      3.87017709903636      0.99825681167161
  C   5.50539934407389      3.90978382569268     -0.18491356568789
  C   4.58282289701669      4.27174190756951     -1.35847824498514
  N   3.34047834481843      3.61916274456032     -0.96169083607130
  C   2.27460974697430      3.50531670345208     -1.78786201780772
  O   2.23620633130691      3.97255994014522     -2.90109601780866
  C   6.09801178166059      2.53383321978535     -0.42491408666028
  O   7.22463841564800      2.43534502579942     -0.84157480485517
  N   5.28435813568434      1.40880852978254     -0.15923373122139
  C   5.83199275148502      0.07404963330526     -0.33539946840218
  N   6.99831744492151     -0.22974970097167     -0.71858850251870
  C   4.91022275753445     -1.01472571875756     -0.02494464728795
  C   3.65452152758661     -0.82138263254194      0.37713513642950
  H   2.50785928508561      3.04523783551532      0.88869292694782
  H   4.97040932277309      3.42111351799161      1.89464371269377
  H   4.16666285109213      4.86471946374169      1.23115911723952
  H   6.34594891906427      4.59068896360334     -0.08806934925800
  H   4.93548639946944      3.90088105136723     -2.32123150034516
  H   4.44755075218385      5.35231121055678     -1.43722616599246
  H   1.43791310484947      2.94811768148542     -1.33458317861531
  H   7.57580829762344      0.57588116790542     -0.92330451763427
  H   5.33322246713670     -2.00026212276071     -0.15512129738890
  H   2.99374516243277     -1.64853063248082      0.59632498698205
