34
Coordinates from ORCA-job 24648optt
  C   1.19035524502907      0.49610680601619     -0.81026915600376
  C   2.68827327132065      0.46056140851736     -0.57041729026877
  N   2.99039140835422     -0.22579553884500      0.66488883393602
  C   4.20268284474530     -0.39031048161455      1.02309595099882
  S   5.53211293509540      0.20870996062391      0.04410394734378
  C   6.98370482933340     -0.25425333803564      0.87914491590998
  C   8.25751183614420      0.15109417224077      0.20407851210445
  C   6.90975365135136     -0.92023570607923      2.03723925271573
  F   8.06561080111218     -1.26536101189203      2.64453565304084
  C   5.73832609641452     -1.32549808536390      2.74615923415589
  C   4.48354973880065     -1.09260577079434      2.29405427435910
  N   3.31088254011409     -1.45546670508713      2.91425980886364
  C   3.11266553515594     -2.13754537973377      4.09800189206144
  N   1.78406967036806     -2.41985348397229      4.34444669210091
  C   0.67489401041570     -1.89511290038534      3.57599033686044
  N   4.08400574873169     -2.47759333638544      4.85262735553766
  C   3.75705098902985     -3.20174497214002      6.05873703687972
  H   0.95672880140656      1.01815951528176     -1.73828510050878
  H   0.68789680392762      1.00691954217607      0.01127065000513
  H   0.79412474314615     -0.51755660188447     -0.87387222657069
  H   3.09288872067149      1.48149528881245     -0.53353743739971
  H   3.19563158683086     -0.03941379053318     -1.40735795942934
  H   8.29117040495748      1.23212244229128      0.05538139547842
  H   8.35024242229318     -0.32299310594177     -0.77493986060228
  H   9.10854072834868     -0.14173321232689      0.81400574030474
  H   5.86714280044657     -1.83914570806627      3.68641307525532
  H   2.50748486881832     -1.16454167137799      2.37090680792744
  H   1.58414611130333     -2.70054028953748      5.28762783621833
  H   0.63842745430260     -0.80089471157435      3.57142522612996
  H   -0.24984367006910     -2.26573263468253      4.01215266451326
  H   0.71321928220240     -2.24758289973959      2.54337226158082
  H   4.67510617146838     -3.46315918545455      6.58060715709114
  H   3.21242893881587     -4.13265715256882      5.85374275406506
  H   3.14982267961323     -2.60484146194318      6.75440976534524
