26
Coordinates from ORCA-job 24644optt
  C   0.89903561322394      0.09430024411220     -0.34470001320143
  C   2.23115936641358     -0.54184474802360     -0.53880545197557
  C   3.13820425457411     -0.78518941602715      0.44917545619688
  C   4.58699198051204     -1.08782072516915      0.33848087142960
  C   5.30270291087153     -1.15462462212141      1.49816435941158
  C   4.71845553192961     -1.18091859195797      2.89003522634164
  O   4.80899622287602      0.07257951872261      3.53766900315856
  C   6.77782319912695     -1.11928292917804      1.53270692674253
  O   7.39259934714698     -1.05265386102230      2.58095379230138
  C   7.49265169536842     -1.11014690529328      0.25112892113470
  F   8.81238573842614     -1.05553047593120      0.28132416211133
  C   6.81478079380503     -1.17597580516250     -0.89227451600089
  F   7.45498926007482     -1.20578183877633     -2.05814722292114
  C   5.36228582538095     -1.26783359682553     -0.95307032089607
  C   4.82962851117704     -1.64724337107231     -2.13387555126002
  C   3.38542296930062     -1.81108019280129     -1.91740137863334
  N   2.74161131499352     -0.72151299797554     -1.80706558357339
  H   0.71318718822425      0.31856549373777      0.70288904899234
  H   0.10929233964247     -0.56041615539720     -0.71690970626575
  H   0.85651784232930      1.01798665487319     -0.92455404843843
  H   2.82691273235948     -0.50944854550632      1.44579729586139
  H   5.25856230855235     -1.94349937988320      3.45757012438630
  H   3.67070247980847     -1.46540340269709      2.88515045812097
  H   5.74293354661499      0.22729720236405      3.72232703027958
  H   5.41681104464582     -1.84083375626991     -3.01965904418074
  H   3.06935598262150     -2.71268779671850     -1.37690983912201
