36
Coordinates from ORCA-job 24647optt
  C   3.48551276416842      0.61075921923340      0.90833232168558
  C   2.55852646302850      0.27331029803257     -0.26013910381836
  C   2.97795394983099     -0.97555391569213     -0.99512924070086
  C   3.99757158707700     -1.04870589110119     -1.95274936132832
  C   4.81691707732886      0.19962339341434     -2.25074942461398
  C   6.26294770208747      0.08018476745851     -1.75693429458938
  N   7.02254569153439      1.31381293029437     -1.80948404140890
  O   4.86182348782285      0.53265284324513     -3.62270675446776
  C   3.62113497500976      0.97056246004882     -4.12698108601208
  C   4.26649185462099     -2.27535332780067     -2.57961461380612
  C   5.36112154072856     -2.46981283242865     -3.60396095357843
  O   6.45258838771452     -3.22634060909434     -3.08896752502971
  C   3.50456586223176     -3.39355536032065     -2.21800428239862
  C   3.70432547897210     -4.73024214212178     -2.87258305923407
  N   2.55818755215275     -3.32928674259802     -1.28027027388647
  C   2.33910433521834     -2.17799986677513     -0.71511738836892
  F   1.38603165467366     -2.17832044490081      0.22739756121068
  H   3.13439318152574      1.49435049536724      1.44147623412819
  H   4.50399385112311      0.80272939836406      0.56488312915947
  H   3.52433432577772     -0.22156457484038      1.61195473763685
  H   2.50334460261661      1.11500646853554     -0.95260502978782
  H   1.54913611234544      0.12374488151806      0.11932704107576
  H   4.37132426895491      1.04585177801340     -1.71693689369297
  H   6.78688843102783     -0.66078515769035     -2.36365199234629
  H   6.24971343463548     -0.28969512371268     -0.72943975936589
  H   7.00569474646021      1.69233963329189     -2.74939880731059
  H   6.62752207506581      2.01358666795575     -1.19195356152383
  H   3.76167807780964      1.19940076356848     -5.18086543306410
  H   3.28577066466650      1.87285449223077     -3.60297483494288
  H   2.85350992887965      0.19673338377348     -4.02394216933619
  H   5.70249233969114     -1.51825236774904     -4.00296549131396
  H   4.97932134455919     -3.05625067097741     -4.44030143690427
  H   6.72518298641752     -2.84423371803227     -2.24896237884033
  H   3.35941028875408     -4.70115852036922     -3.90934577145538
  H   3.12672926972331     -5.48001219915479     -2.33899047121571
  H   4.75720970576510     -5.00838040898629     -2.88464559055428
