30
Coordinates from ORCA-job 24649optt
  C   1.13594430881397      0.10108353955588      0.17677970018948
  C   2.64398802143723     -0.11241437513091      0.00828087898547
  C   3.12734830166746      0.00602776872239     -1.44948297298876
  C   2.40358783766085     -0.84071799258992     -2.49473692757319
  C   2.51184996318317     -2.36506067783490     -2.30954284595929
  C   3.94661614980883     -2.88503451423425     -2.46356367247803
  O   4.44552388812790     -2.60466019506430     -3.75437759048592
  C   1.90476253058320     -2.74787569808414     -0.99182304263822
  O   0.79477340997582     -3.12927344204650     -0.82042663599519
  N   2.79416762451718     -2.59342861438124      0.18034384830257
  C   3.28269158936747     -3.81517267699792      0.68009842093731
  O   3.07479311968572     -4.85769139659812      0.10401730109678
  C   4.04352546055206     -3.62006224273009      1.89392436672232
  F   4.50416901239713     -4.71312266995996      2.48879396033000
  C   4.29075818839045     -2.38796368638049      2.37459158785272
  N   3.84868151721365     -1.24749304294856      1.76311050566805
  C   3.12507296960863     -1.36766593428449      0.69733440034248
  H   0.85568305897713      1.05843377775431     -0.26482546781729
  H   0.87662925955234      0.12378187254599      1.23513748513740
  H   0.53650705530884     -0.67523973400105     -0.29589578918711
  H   3.14933006460445      0.67384857929697      0.56841878419041
  H   4.20195183218136     -0.19068577449770     -1.48305330309052
  H   3.00527837909542      1.05286567673142     -1.73608293780263
  H   2.81790919421541     -0.61288390070145     -3.47750099070692
  H   1.34500274832360     -0.57277300095214     -2.52084567999056
  H   1.88343650826701     -2.84362332750937     -3.06399257882581
  H   3.97919143351430     -3.95442353928949     -2.23834368039513
  H   4.61619035057787     -2.38329961050826     -1.76354720358301
  H   4.10559469678025     -3.25460515682619     -4.37562750315240
  H   4.87804152561124     -2.26687001105550      3.27683758291498
