27
Coordinates from ORCA-job 2464optt
  Br  1.13204547907857      0.57324770373279      0.68274163737830
  C   2.98673930027521      0.35991553843034      0.49707515212024
  C   3.79959847730708      1.41092423855842      0.65668145398477
  C   3.57561482529323      2.89252034182745      0.84977690227873
  C   4.83960774883121      3.26798585676902      1.63065649153493
  C   5.76194652103918      2.64010897591021      0.57816281142558
  C   5.30300350476653      3.37454838638197     -0.69117095773390
  N   3.85359069941333      3.55779644029073     -0.44086492899497
  N   5.17655430244866      1.28990873740166      0.51062696526576
  C   5.74303200197053      0.12832803873336      0.11544737227757
  C   7.16085207331753      0.17197406361619     -0.10250270309098
  C   8.34240493207002      0.25888293294721     -0.27851091131316
  C   4.97734703611291     -1.00275538087371     -0.05285246276399
  C   5.66707326259403     -2.23232362553784     -0.45234480505715
  O   5.13143621611337     -3.29491089823042     -0.66507795390309
  C   3.50887947303073     -0.97726210901131      0.15872375508055
  N   2.70727627348420     -1.95991909944467      0.06082126184412
  H   2.61163912638174      3.16583781237223      1.26272790363161
  H   4.91492451220692      2.78409950288751      2.60163640114411
  H   4.96241193367678      4.34521102455839      1.71256974747719
  H   6.82933792430207      2.60904210482986      0.76557481328812
  H   5.50802853128307      2.78276202213510     -1.58433601503916
  H   5.80448904463658      4.33923173628446     -0.78669099743022
  H   3.28497186653624      3.16910913158781     -1.18258985609803
  H   9.39395362807625      0.31565146015820     -0.43657664227466
  H   6.76050356651813     -2.13832925321422     -0.55877500252649
  H   3.20473773923580     -2.81058568310075     -0.18892943250578
