27
Coordinates from ORCA-job 24650optt
  C   1.41220878436299      0.53616799501461     -0.22833640355185
  C   2.86130344250793      0.05993699161246     -0.11160432580166
  C   3.36242114545114      0.11676968295477      1.34054585954620
  N   2.39409469522906     -0.43229445464189      2.28781157999279
  C   3.05490187101397     -1.27079405788258     -0.77997988070235
  C   3.70841090253457     -1.45561797289520     -1.95979549619927
  O   3.67041655378573     -2.74564920558867     -2.32859350603192
  N   2.97825203553795     -3.44681176721014     -1.39331600190687
  C   2.61019220035199     -2.59715182155867     -0.47364612648476
  C   1.81854693842873     -3.10656328972213      0.69027605546894
  C   2.68597888461784     -3.77350720987392      1.73293691604918
  F   3.70336032784943     -2.99386321178601      2.12757718358570
  F   1.96702128751166     -4.06756439248070      2.82560338549679
  F   3.21992894124380     -4.91401473645105      1.29340454273538
  C   4.35260994673034     -0.53401048981398     -2.82223679844698
  C   4.88445405618070      0.26534936249456     -3.53890507651425
  H   1.29751648475854      1.52765585582664      0.21600368575815
  H   0.73545150082836     -0.14712367314036      0.28565971505955
  H   1.11074166464887      0.59329794340662     -1.27379259164167
  H   3.48680848458490      0.75637967359812     -0.67748518541792
  H   3.61184066297350      1.16049503491678      1.56423205996097
  H   4.28528444591705     -0.45815102465953      1.41909125261408
  H   1.71427878242282      0.26653794060858      2.55966723765228
  H   2.85343214465641     -0.75428365364435      3.12961773151356
  H   1.10302914247542     -3.85538186649289      0.35253832059317
  H   1.30702346738076     -2.28814699568480      1.18959562784327
  H   5.35349120601548      0.96833934309376     -4.18586976117049
