27
Coordinates from ORCA-job 24659optt
  C   0.98920832362178     -0.20741937321763     -0.85902348004611
  C   2.37495505593596      0.12048840176987     -0.36624855544723
  N   3.25320700900401     -0.80207202176678     -0.57377767991809
  C   4.55063623774819     -0.82564830096469     -0.14171261970318
  C   5.42520990716220      0.20679582301457      0.05791444644401
  C   6.80541555830247      0.03017918133878      0.59103675359868
  N   7.57691219548628      0.93718730694453      1.04801032684417
  C   7.32865131166981     -1.34096308906657      0.62315137381893
  F   8.62085607694354     -1.43948257525062      0.92837756423091
  C   6.63727994210031     -2.45669655296521      0.41313804765157
  S   4.96589914742512     -2.51347749981435      0.01103347086284
  C   5.02305741902904      1.59055271743968     -0.25345174683340
  N   5.78051689664107      2.49548955012233     -0.73448627147041
  C   3.70389302794883      2.09484042230892      0.21338268879044
  O   3.72458309371040      3.38726562938485      0.54788316601158
  C   2.53346897040335      1.41590595273793      0.26756467228951
  C   1.30907365027955      2.14557824578779      0.75649807471388
  H   1.04324154092839     -1.06108640478990     -1.52788928126430
  H   0.53141500931937      0.64247063644361     -1.36515124827242
  H   0.34639072464750     -0.46748756199023     -0.01469222726453
  H   7.14856798111182      1.85897525470082      1.02873423295367
  H   7.12259728352067     -3.41923453582524      0.50567277051609
  H   6.69914270946473      2.14402392896789     -0.99579146851221
  H   4.57949327812175      3.73825511179276      0.23358411521195
  H   1.58612267776191      2.88384219534560      1.50462493539411
  H   0.59081800182610      1.45637685675687      1.19681540369749
  H   0.80838696988580      2.67634070079440     -0.05719746429795
