21
Coordinates from ORCA-job 2465optt
  Br  0.99746944408421      0.09992552462451      0.07914802212394
  C   2.87142487900851     -0.00512514721904      0.08680664613807
  C   3.56141950686061     -1.19070822948027      0.08934622493162
  C   2.97716321018177     -2.51324230321631      0.08979112727841
  C   1.69728795783688     -3.05325747665016      0.09082720016316
  C   1.80982909717568     -4.45840757671713      0.09208274871812
  C   3.14332746016347     -4.77091211902635      0.09171069245719
  N   3.84214903838683     -3.60514929393850      0.09051861264476
  N   5.18881439408895     -3.60317699902847      0.09030668851621
  C   5.75975360025176     -2.45502880238141      0.09075176210902
  C   7.19078870981866     -2.43905298022219      0.09012620696711
  C   8.38700541877562     -2.43916705648831      0.08899256661706
  C   5.02877031645160     -1.16809918713577      0.09139942174491
  N   5.77821158040968     -0.12214285045722      0.09299189470242
  S   5.23659291933970      1.40273108463525      0.09368124889750
  C   3.47080402604622      1.33170819607353      0.08967185675722
  O   2.86891138622224      2.37552772117348      0.08943653205879
  H   0.77660193260889     -2.50489996594993      0.09098221168905
  H   0.99559650163716     -5.16237525670766      0.09316157236269
  H   3.67786598113107     -5.70515353176894      0.09222939729850
  H   9.45121263952042     -2.43999375011906      0.08803736582426
