31
Coordinates from ORCA-job 24655optt
  C   0.95323403758955      0.11251075042766      0.06881530814755
  C   2.46274356861400      0.00284547722999      0.22434975137436
  O   3.03041745676670     -0.61361566365433     -0.92092532598752
  C   3.10198028118927      1.36287374707307      0.54567915374292
  N   2.67264231410395      1.86999677785117      1.84608028911643
  C   4.66033845990200      1.35036257907177      0.48130919436034
  C   5.23081506048071      0.21204609020301      1.32679948146368
  N   5.08244355294578      1.24320818330988     -0.92806517429006
  C   5.11989170215619      2.70903973678778      0.96069188301676
  C   5.88055111791060      3.05167165119948      2.01233137175338
  F   6.38047181909836      2.15600231283882      2.87612138764080
  C   6.17984386533299      4.41905991651320      2.29304998463981
  C   5.69224992517897      5.36478866830716      1.48306854959080
  F   5.92780472424783      6.65240598864287      1.67951782680873
  C   4.86744941319542      5.04207724059108      0.32272021139024
  O   4.40376078172088      5.82326488336756     -0.45226642626428
  O   4.64707109932833      3.70250041240475      0.16330055386444
  H   0.54766058735304     -0.85970522691924     -0.20800024285660
  H   0.70543572010985      0.82731427338355     -0.72033192463119
  H   0.47332932651186      0.43763624491502      0.99170154888566
  H   2.68558308878755     -0.68249593735816      1.04820293370373
  H   2.99375774516445      0.01701528716815     -1.65087465510689
  H   2.78619050352976      2.08249862257356     -0.21467537726854
  H   2.64350632318835      1.13441966419159      2.54343079888558
  H   1.75164217589556      2.28374479007563      1.79768416662859
  H   4.92454342204586     -0.73226545441063      0.87676043756604
  H   4.88022657922296      0.24540094701570      2.35889954129440
  H   6.31917363668969      0.24890305969364      1.33733509232703
  H   5.12991054271462      0.26417632802599     -1.18406071710628
  H   6.00993096788718      1.63468688912579     -1.04971791735094
  H   6.78840020113757      4.67263176035439      3.15106829466100
