30
Coordinates from ORCA-job 24665optt
  C   2.19530780662380     -0.74907217687740     -2.11459936161304
  C   1.76985780356265     -1.39242807428577     -0.80112493374758
  C   2.95214080067235     -1.47553077801396      0.16738469578430
  C   2.58144082040207     -2.11360112791903      1.47295204834938
  N   2.63577020341388     -3.44242501720749      1.53878941279692
  C   2.28404963508279     -3.96160107866450      2.69015179167110
  F   2.32015334338701     -5.28966462388567      2.75513270134074
  C   1.88887635878405     -3.26205944776411      3.80954703073427
  C   1.48433089524451     -3.92457111924383      5.10008919696274
  C   2.29844126143847     -3.49959094209976      6.24208227249481
  C   2.95561372600109     -3.11515535111445      7.16679153152622
  C   1.86100759992667     -1.87012697114696      3.62278312528464
  N   1.44590028523275     -1.03465399384879      4.61062011998720
  N   2.19882387023200     -1.30706192018006      2.45612431531845
  N   0.69336503736071     -0.64104168674629     -0.16603242628106
  C   -0.55704304115328     -0.61043104146786     -0.67299771907316
  O   -0.89675845595387     -1.14367486934363     -1.70560096658587
  H   2.97581280395998     -1.34506350290194     -2.58925878769600
  H   2.58444785001687      0.25455808606237     -1.93238789298906
  H   1.34496614676182     -0.68262301919767     -2.79017069553733
  H   1.39966589704516     -2.40229426914288     -0.99995966420292
  H   3.32658414709803     -0.46816598780067      0.35922053718029
  H   3.73808424228758     -2.06421471184241     -0.30329364281405
  H   1.55866832075779     -5.00596448881536      4.99012210519316
  H   0.43565820064954     -3.69701461915818      5.31772555258678
  H   3.54490465001585     -2.79784305126559      7.99434458671168
  H   1.52183672643776     -1.34350656049368      5.56755565148254
  H   1.60832540579929     -0.05483254577721      4.44282657443985
  H   0.85616774713263     -0.24294813840547      0.74724071473711
  H   -1.25740008821999     -0.03539697145170     -0.04505787404216
