30
Coordinates from ORCA-job 24668optt
  C   0.74836084783921     -0.25325424368046      0.22779658403272
  C   2.25566543196974     -0.20314353180982      0.04837148574477
  C   2.96174259334496     -1.44966638865036      0.59258197325723
  C   4.46566738819830     -1.30795869890758      0.45672339735655
  N   4.89105201014769     -0.12859444222815      1.19343474580783
  C   4.38438240032953      1.15822258067568      0.71473199568961
  C   4.86664364694688      2.24231826463359      1.69268894455213
  C   6.18451132082321      2.66788972885686      1.10797685623597
  C   6.31900138081493      2.28361401596518     -0.15381063234292
  C   5.08172205904230      1.55983703985612     -0.63757927764150
  C   4.29459335406443      2.47926660092598     -1.55199588312756
  F   3.90263606428028      3.60435934913374     -0.95323137591882
  F   5.03771191771309      2.83143316416385     -2.61254473130918
  F   3.19305131437050      1.88331243335922     -2.03610343053608
  C   2.84847911069494      1.05590537630505      0.66097885150174
  O   2.16254811099597      1.93967973958161      1.10038708491184
  H   0.34487091266046     -1.14901910952469     -0.24578087488708
  H   0.27013801738692      0.62233758158067     -0.20709628152552
  H   0.49255642594035     -0.27707585092362      1.28803382479318
  H   2.49455107919221     -0.14191993615040     -1.02052055739330
  H   2.60802150495379     -2.32779312228227      0.04835242235240
  H   2.70843382977034     -1.58431148757343      1.64723743126256
  H   4.73086677195020     -1.27709150796486     -0.61210881864580
  H   4.97414692852132     -2.17039874440062      0.88790244240253
  H   5.90011862993142     -0.08042273900633      1.27902966101815
  H   4.94261388710829      1.82844818495510      2.69814510951997
  H   4.16319957058371      3.07655883861774      1.72376515823062
  H   6.91497178343510      3.24737672249832      1.65660790194298
  H   7.15291189451234      2.50195123147384     -0.80596000263115
  H   5.30282981247756      0.67713895052003     -1.24101400465386
