28
Coordinates from ORCA-job 24674optt
  C   1.08002384108144      0.02341970812536     -0.05692293776903
  C   2.60620223751648      0.07919684869605     -0.03633697477507
  N   3.15673939117241      0.15935104781962      1.30491910209625
  C   3.20029631337898     -1.11344053324238     -0.81837414106400
  N   3.36696982546631     -0.69072743669456     -2.20124362529622
  C   3.29638238431663      0.57473669867587     -2.25405757369380
  N   3.39392769979853      1.31818131279404     -3.39648991743945
  C   3.04497001905358      1.26904376839769     -0.93175194592155
  O   4.29047623321859      1.84466441716104     -0.53654715640276
  C   4.33391994436255      2.69201038676376      0.48113624712334
  C   5.54669752842447      3.02499224632543      1.00258530349830
  F   6.64687303128750      2.43134376743806      0.51560509573178
  C   5.73069151191594      3.95690189406025      2.03689028152962
  N   4.84956480751041      4.65773590135939      2.68500916418793
  C   3.51774000429271      4.57876490714577      2.43040268756436
  O   2.63882641026363      5.16978553601164      2.98015950286339
  S   2.90272331281884      3.44436242043224      1.09042711851389
  H   0.73458992420991     -0.86421003126960      0.47395742496783
  H   0.70186553354870     -0.01741564259208     -1.08070833663789
  H   0.66092686344221      0.90709364222501      0.43074486386658
  H   3.42951642508024     -0.75179867157856      1.64866086070559
  H   2.50305431262453      0.56512398645399      1.96349570896987
  H   2.54997331759550     -1.98862030748682     -0.76169423079191
  H   4.17652238370326     -1.39277507318536     -0.40965418599070
  H   3.77558160428625      0.83487328558439     -4.19528868063705
  H   3.69378295820905      2.27406424452899     -3.29491179453420
  H   2.28808466800738      2.05361598814230     -1.01348763607047
  H   6.76807751341390      4.10472568790846      2.33247577540537
