22
Coordinates from ORCA-job 2467optt
  Br  1.16253920670324     -0.17710918134634      0.30809761118981
  C   3.01054741378667      0.10400341115327      0.18832673328696
  C   3.59587416624531      1.33179278864608      0.06997818085843
  C   5.00202507243247      1.34086517262505      0.07037168770218
  C   5.98921717355559      2.30542344151016     -0.02325503448702
  C   7.22826733292958      1.60840562009576     -0.03672371735720
  C   6.98068877449249      0.26163389923231      0.05479539972254
  N   5.62794898562772      0.09934430331752      0.12056250808345
  N   4.99104336100110     -1.07647519892344      0.21244389528971
  N   3.73197054117379     -1.06291621249403      0.25920873565736
  C   5.74049687532191      3.73587835878879     -0.01283006429385
  C   6.82451233404612      4.69630943970086     -0.29951842298327
  O   7.94227084455805      4.39065823052620     -0.61946412593620
  C   4.56748401041529      4.31056435981706      0.29365254465854
  O   3.39289896549467      3.70491388785418      0.61056528323935
  C   2.88936696775212      2.62174995772277     -0.10808568019060
  N   1.87216870093715      2.73334428023723     -0.82194599895843
  H   8.19906862838133      2.06584307276316     -0.10976056090447
  H   7.62921666453062     -0.59629195452279      0.07746946765547
  H   6.53750194095682      5.75951732452681     -0.19959825121848
  H   4.48037551460162      5.38859069564161      0.35642623485416
  H   1.52651652505626      3.69295430312778     -0.82671642586844
