33
Coordinates from ORCA-job 24677optt
  C   3.54247348771424      0.74756019877683     -0.63415194834034
  C   2.49131209301047      0.22479770723019      0.33862404388465
  C   1.30422638444845     -0.37735990387744     -0.40703694507646
  C   3.09739409998312     -0.81783460173831      1.26527562956199
  O   2.13327972771541     -1.24002556067391      2.17076954397406
  C   2.46209554438083     -2.41507908268686      2.89110461070460
  C   3.61748900516808     -2.24966669051497      3.87216715019924
  C   3.46691372946173     -1.03047105699877      4.77689684713062
  C   3.70956243117397      0.33904493549216      4.18409529061894
  C   4.06230319075068      0.65303685622635      2.86322632642575
  O   4.25990857282394     -0.34462348620892      1.95024472292898
  N   4.26927684216591      1.88199496147290      2.43347272261275
  C   4.14256776529703      2.89651388332055      3.27984221174582
  C   3.79893241904356      2.73103527469021      4.60966625024816
  O   3.65568211032156      3.73822803973914      5.50490048833953
  C   3.59320626482023      1.42472506945507      5.03298772366995
  F   3.27101469092476      1.21711262372107      6.31154357172186
  H   3.09301512767433      1.46927502551147     -1.31727942356574
  H   3.94533118425499     -0.07207221428362     -1.23585023480747
  H   4.36241152287028      1.22900611062515     -0.10603690702435
  H   2.14079744503228      1.04916795751753      0.96693256515533
  H   1.62670468853391     -1.23073886650921     -1.01086083772618
  H   0.87261943213484      0.35992946136709     -1.08487744721872
  H   0.52979368716967     -0.71619357080773      0.27833974712383
  H   3.47788891422713     -1.66908650708378      0.68514989234540
  H   2.67635619562452     -3.22707068967190      2.18619098066394
  H   1.55349774800205     -2.67113952946332      3.43774519275166
  H   4.57255073990412     -2.22800601508753      3.35131005107686
  H   3.61932500362518     -3.13952831051812      4.50726525368349
  H   4.14538976921482     -1.13586432426000      5.62708764377699
  H   2.46131697641372     -1.02891752813658      5.20972427774159
  H   4.32003178183615      3.89422283342820      2.88648143244180
  H   3.82933142427800      4.58102699994706      5.07304957323142
