31
Coordinates from ORCA-job 24684optt
  C   2.91562873519541     -1.42641470079594      1.87350877059901
  C   2.48625394400735     -0.48673163173672      0.75394313586320
  C   2.86787868107173     -0.96390272221351     -0.65729527172738
  N   2.41658981344870     -0.07454757078892     -1.72124352038666
  C   4.36215887405830     -1.13766270703942     -0.75641230218800
  N   5.05855905580744     -0.08058216519144     -1.01536468936740
  N   6.38091799694221     -0.20296520510786     -1.08164016469754
  C   7.02563503179345     -1.36864356871948     -0.90217147040387
  F   8.33527298614214     -1.28275545750875     -1.01796495132924
  C   6.38260532817416     -2.52783220356222     -0.60627882853670
  O   7.12434936937947     -3.62536809433956     -0.35448148937872
  C   6.69390642556180     -4.87399859805970     -0.94307836656309
  C   6.43143617480332     -4.72989413598932     -2.43432015143387
  C   7.77309940776016     -5.82709785120326     -0.68373223108659
  C   8.64744507299989     -6.62509863827198     -0.51010913986618
  C   4.94034566283822     -2.47458253915708     -0.50031064028812
  O   4.24626592347885     -3.44647752174705     -0.22747736114591
  H   2.53948317006635     -1.07648003759839      2.83485797553623
  H   4.00286108238329     -1.49037261804829      1.94706446063867
  H   2.54364667581620     -2.43641125144893      1.69995744023238
  H   2.92304171415223      0.50700321621303      0.89836153619163
  H   1.39997970890435     -0.36236801220794      0.77180422186577
  H   2.43109695074445     -1.95117128694806     -0.81988356177387
  H   2.88134936133353      0.82339838166573     -1.64056330729505
  H   1.42042981121172      0.08833624412212     -1.63469346518142
  H   6.90274553826823      0.63387784960309     -1.29120839498000
  H   5.78614294533024     -5.19671894900732     -0.43373617371402
  H   7.31467610262325     -4.32873271029968     -2.93214479740303
  H   5.57774680101362     -4.07576412555983     -2.60861933084621
  H   6.20637109487017     -5.70864400983458     -2.85502956803932
  H   9.42308055981964     -7.33439737921864     -0.34573836329466
