28
Coordinates from ORCA-job 24694optt
  C   1.02984577703831     -0.17373826702554     -0.05593097436390
  C   2.53193138904186     -0.14625423291771     -0.05670903125742
  C   3.23399326380391     -1.30413522982322     -0.04755458967369
  C   4.65817742606819     -1.24381976339239     -0.04793835582056
  N   5.55449292860936     -2.23324778492544     -0.04120687106464
  N   6.69640153254440     -1.58472109595593     -0.04544236533487
  N   6.66204930516282     -0.27374097011179     -0.05422688364910
  C   5.35022928709954     -0.01719356039783     -0.05607423883349
  C   4.62812115982790      1.22241730001570     -0.06634186244196
  C   3.21409494166202      1.14562107011109     -0.06762114137507
  C   2.49190216996735      2.34950549058548     -0.08092047430795
  C   3.12987118029768      3.57080754576941     -0.09656960122744
  C   4.52566302328992      3.66247714209431     -0.09678552875183
  C   5.25467500359083      4.98368456405878     -0.10447890394405
  N   4.40747450760464      6.05413938436696     -0.61898192179882
  C   5.23107738508518      2.47957023659117     -0.07707409912132
  F   6.57037622985112      2.53142949688564     -0.06692610380226
  H   0.66987967214969     -1.20045295590151     -0.04618410231710
  H   0.62476584862047      0.32225249655539     -0.94041450521562
  H   0.62578093061500      0.33849703506821      0.81972483349588
  H   2.73448311368238     -2.26422629058760     -0.03948074100222
  H   7.57498422040762     -2.07828884883877     -0.04200612161325
  H   1.41125599997521      2.32461045414629     -0.08027412464172
  H   2.55942056790256      4.48982963065744     -0.10924613002645
  H   6.19424081975786      4.86032039535717     -0.65175625455123
  H   5.52754459082281      5.23768274233101      0.92359254263544
  H   4.23600783917605      5.92441793295279     -1.60968204527303
  H   4.86525988634529      6.94955608233087     -0.50849040472232
