29
Coordinates from ORCA-job 24699optt
  C   1.03129026886187      0.35998767880326      0.01264331870305
  C   2.51876001265105      0.30118149764476     -0.29089391394488
  C   3.07355030836936     -1.11460647196141     -0.39448643490232
  C   2.61635165792177     -1.80068371354973     -1.67819565489806
  C   3.02229787690767     -0.92910577061883     -2.86800783889408
  N   4.48218196037369     -0.94766898881388     -2.94992625694900
  C   5.11553618973357     -0.05616728118916     -3.56463254050044
  O   4.46078917431319      0.97172927571639     -4.21633253749097
  C   5.10044329258391      2.08638246376128     -4.61294317938965
  O   4.24131842613532      3.02680801777190     -4.95843434654226
  N   6.35798422828046      2.23451933321229     -4.67132475436346
  C   7.10404658411606      1.14081299879048     -4.25677446677078
  C   6.55465140034312      0.04741004038250     -3.71402384031492
  F   7.28145840542388     -0.97246613700422     -3.27224234716642
  C   2.41805302094659      0.46055873998121     -2.66320526680900
  N   1.68841066362940      1.10232093042217     -3.46830606231917
  O   2.77209377230216      1.05340470518122     -1.50103511182954
  H   0.82555344288577     -0.10428675776806      0.97783020503408
  H   0.44939496734394     -0.15749924862238     -0.75167238670778
  H   0.69929255419489      1.39673592441274      0.04057409065616
  H   3.06605967131353      0.85278601178259      0.47257306531175
  H   2.76127175075107     -1.68116883613347      0.48430180752686
  H   4.16409247954650     -1.07440738231831     -0.39238208780262
  H   1.53334101267146     -1.94247641226397     -1.68597261494375
  H   3.08631163868510     -2.77825710733784     -1.78255622447145
  H   2.61765246533215     -1.34112802812663     -3.79677637539628
  H   3.35228544236760      2.77216422794576     -4.65766116264923
  H   8.17840995930030      1.21948397430234     -4.35733662140844
  H   1.57311737271458      0.56863631559700     -4.32780046076740
