32
Coordinates from ORCA-job 24704optt
  C   1.03555918673867      0.04141278105046      0.07955084501849
  C   2.55370851546868     -0.00769863018624     -0.04452103779173
  C   3.04629474859502     -1.45384368580282      0.00974393345428
  C   4.56208337410974     -1.61758311645658      0.02461167158233
  C   4.95436366625184     -3.07284574658648      0.29837152148760
  C   6.40274299350305     -3.26928816900339      0.28906739401689
  N   7.54112894830797     -3.39992656310195      0.27780754176813
  C   3.01429008059855      0.70117173733061     -1.31698892204606
  N   2.59341906740555      2.08068031273316     -1.31327120438270
  C   2.97796904501528      2.87604842605616     -2.21470420690528
  S   4.04935040024698      2.23007493192289     -3.54334387628854
  C   4.36234393097041      3.64620851145537     -4.47375149594381
  C   3.86075812194809      4.83750734616805     -4.18043682918137
  F   4.14951673945751      5.91215042193902     -4.93977577532342
  C   2.97433172024881      5.08506186346740     -3.04917422151751
  N   2.53943145037561      6.35394077028027     -2.90776750255348
  N   2.59381921350080      4.19132397379069     -2.20283543348405
  H   0.70615793765370     -0.40683032507763      1.01838694521174
  H   0.56903893661557     -0.51312816387464     -0.73972393682716
  H   0.68211010535491      1.07006810010906      0.03862586708856
  H   2.98937462844339      0.53756011085510      0.79997573504559
  H   2.62789622715264     -2.00835971154535     -0.83888537198606
  H   2.63276652934556     -1.91905277141958      0.91042743064859
  H   5.00137527648246     -0.97723578036860      0.79343672576024
  H   4.99787095137872     -1.31296368841064     -0.92785551275648
  H   4.51676657673746     -3.73302196015680     -0.45356157436500
  H   4.57365344765332     -3.39518275448688      1.26955787162196
  H   2.59667362262142      0.17456890931552     -2.19062843612726
  H   4.10771085585620      0.64082654261569     -1.40435919017270
  H   5.00878286717711      3.52015762404224     -5.33275539685434
  H   2.78880999698048      7.06784511460521     -3.56691480299693
  H   1.90990083780437      6.55635358874064     -2.15030875520048
