29
Coordinates from ORCA-job 24712optt
  C   0.93130192173970     -0.06295087034552      0.35146079204764
  C   2.41078788990018      0.00857004701016      0.04353580963784
  C   3.07971224417046     -1.16773206878735     -0.15309263356773
  O   2.46582784235567     -2.38991973585560     -0.20623300469332
  C   4.49793108669856     -1.23376066296013     -0.25386521917956
  N   5.08855588062147     -2.45718433784243     -0.45500707532486
  C   5.24697153043943     -0.07912046067103     -0.15595913273833
  C   6.73729053969989     -0.20507813978616     -0.31458680103759
  N   7.32106176647651     -0.96957852566047      0.79739486667550
  C   4.59532849200201      1.16266443551794      0.05619861350854
  C   3.17246582627953      1.22170259048424      0.07790430272839
  C   2.60390026529517      2.53193853661137      0.12800479930683
  O   1.28928700387310      2.75651313952750     -0.09394870168559
  N   3.28519598616584      3.61944664056155      0.35701439624256
  C   4.59723210832319      3.50140828962613      0.47130057181183
  F   5.23795393220088      4.63527781808191      0.76756181771246
  C   5.31521815584954      2.36364811965432      0.27914649342530
  H   0.70045998340470     -0.99078046389079      0.87722696580325
  H   0.29640744309582     -0.03147096643948     -0.54177790517100
  H   0.62560843459121      0.73890345114778      1.01969131924951
  H   1.52184540692825     -2.29090107859881     -0.35401662369871
  H   4.48216202428130     -3.25309507165484     -0.34184508312643
  H   6.00405752863301     -2.54925671084426     -0.03287087392243
  H   7.19542490356083      0.77451191699527     -0.45229351516890
  H   6.92988766912643     -0.77346755435473     -1.22992274000147
  H   7.11374652784701     -0.51538242256179      1.67967205440988
  H   8.32934073947831     -1.01839731533164      0.70987907322850
  H   0.88738242529032      1.99547801668704     -0.51941166910105
  H   6.39065444167164      2.40101338367981      0.33583910262894
