27
Coordinates from ORCA-job 24728optt
  C   0.79390594002417     -0.38144595805702     -0.08825471255431
  C   2.28246699771801     -0.09862705160143     -0.15479484712850
  N   2.91180996242137     -0.89484074517877     -1.18772005469335
  C   4.16630861506413     -0.87792056116133     -1.31681017859347
  S   5.18602071941955      0.16591971869137     -0.25687650829486
  C   6.76409005622469     -0.33116813999122     -0.67592358980447
  C   7.08901893782131     -1.22477981572262     -1.62601147138779
  C   8.55933088800174     -1.33803825151259     -1.57672821727865
  N   9.25560928727541     -2.18488576126158     -2.42370656786260
  N   9.11886022441214     -0.56042920090195     -0.73097051865694
  C   8.05318856397857      0.17676925877559     -0.05417843772773
  C   8.18516145720918      1.62709064791400     -0.20142330649373
  C   8.25831487286012      2.81311182469707     -0.33731996783153
  C   6.14900181520129     -1.82302539041228     -2.53675593391669
  O   6.59193561491858     -2.57454660845441     -3.57302092558718
  C   4.82307777798523     -1.63860424754564     -2.37649170400528
  F   3.99198471482727     -2.19128219698983     -3.25335121112180
  H   0.31975119653987      0.22571428596388      0.68321815945407
  H   0.62057175978558     -1.43301255763761      0.13921689814997
  H   0.32553419499899     -0.16131453430143     -1.04683149820513
  H   2.75172416968125     -0.30798358205197      0.81696393482562
  H   2.45685095512938      0.96655538300306     -0.35888213753478
  H   8.89350658220190     -3.13005459431261     -2.44588685913484
  H   10.24994358782451     -2.17028143819758     -2.23572292732856
  H   8.08835844154645     -0.07665601999895      1.01109483287355
  H   8.33793832921917      3.86723211301156     -0.45745462059048
  H   7.49773433771002     -2.31649657676569     -3.79237762957049
