24
Coordinates from ORCA-job 24726optt
  C   3.80779352647317      0.22328623692581     -0.89564718271115
  C   2.65343864418520      0.04511640457871      0.07514145530537
  N   3.07276220526671     -0.63963079571424      1.31065277109991
  C   3.01274347090140     -2.00623482429626      1.40545308545951
  F   2.66711943129704     -2.60179655580527      0.27313119471961
  C   3.22344621328608     -2.72477006969234      2.51644532789661
  N   3.17455311219558     -4.11514499153595      2.59553421150886
  C   3.57957628310699     -2.00323766670280      3.72336889404531
  O   3.65267428852051     -2.51671849655376      4.80316835846944
  N   3.86824960554405     -0.60180367876655      3.53501276065338
  C   4.61920380925400      0.08452557805804      4.52027812284130
  O   5.21564131800483     -0.44333526911142      5.39656259792623
  C   4.59319904797265      1.61117466919746      4.39383151667974
  O   5.02690730368017      2.30751516027064      5.24852819266285
  O   4.01731772190925      2.13645772455402      3.29849900426587
  N   3.65523666666726      1.36281883712815      2.19900691790824
  C   3.54347645727636      0.09672120869097      2.37364426494064
  H   3.46067873647341      0.74947331673218     -1.78472583398768
  H   4.20713703775035     -0.74308002264521     -1.20390042139893
  H   4.60295147364685      0.80961553607772     -0.43722367426819
  H   1.85517207020267     -0.54748950215384     -0.36425040186342
  H   2.24644933973303      1.00489519361383      0.38109774243470
  H   2.43375485935838     -4.54120389085995      2.05836571201329
  H   3.15951737729397     -4.41615410198995      3.56202538339849
