32
Coordinates from ORCA-job 24747optt
  C   1.20842728597114      0.16044642309380      0.15323767296811
  C   2.68420947516162      0.01839824707832      0.05672334024738
  C   3.34941908564671     -1.08706816368485     -0.31543873304837
  F   2.66155904496004     -2.18299821104185     -0.64181037019528
  C   4.81068450625383     -1.16598424457021     -0.38966605750619
  O   5.40744606598371     -2.17293159988108     -0.72116339130615
  C   5.44114598557037      0.09478749825438     -0.01958139493307
  C   4.70132282715022      1.15153600850399      0.35059422235623
  O   3.35474082402612      1.14717233191474      0.39589374127856
  C   5.36000442813635      2.44780073457983      0.70383467619039
  C   6.51603696137532      2.15776661550663      1.68089601896995
  C   7.33787952742577      0.90228844371500      1.31507046186345
  O   8.71026666500491      1.26311670771155      1.34772875642786
  C   6.93251398067524      0.28970218612723     -0.04007440946963
  C   7.38206567945567      1.13880700464081     -1.24434138197341
  C   7.22126718395590      2.65143777434677     -1.06974701859580
  C   5.85613488725748      3.14372365000908     -0.58469204969473
  H   0.72018069556181     -0.76396892396286     -0.14117770085326
  H   0.86990006185609      0.97056865798902     -0.49399910806815
  H   0.92539214207801      0.40766305919756      1.17738236238745
  H   4.61942321868093      3.08486117504814      1.18852077714299
  H   6.10938233882159      2.03945785992008      2.68499789405435
  H   7.19229889714467      3.01274220556471      1.71029755484668
  H   7.15147568539019      0.13803202853008      2.07607232195372
  H   9.24304015337230      0.47191205807342      1.22102475031800
  H   7.38492486368263     -0.70098637148676     -0.12945113706124
  H   6.83273434232688      0.79179024594493     -2.12338918845523
  H   8.43774925593270      0.94129014632397     -1.43918987696495
  H   7.44629378298718      3.13903854045448     -2.02074095534559
  H   7.98386138479698      2.99251096797436     -0.36790124658754
  H   5.10032589344462      3.02294869853931     -1.36544896098513
  H   5.93289286991297      4.21513824558544     -0.38546156996138
