38
Coordinates from ORCA-job 24743optt
  C   0.92569976722653      0.09621436720074      0.24740289228819
  C   2.41684560475948      0.03983073010899     -0.06560339749818
  C   2.95217129618938     -1.38667711933392     -0.25248905370691
  N   2.18485917599660     -2.16218486642472     -1.22910423290147
  C   4.45445921825710     -1.39863469113633     -0.61388545347869
  N   5.26532609983091     -0.66109284949700      0.35652350453597
  C   4.99339101124591     -2.84593840173578     -0.79654328760219
  N   4.69905384460882     -3.43933143857529     -2.09497869885847
  C   6.49696138623731     -2.96584708033325     -0.48462719030920
  C   7.00455372104302     -4.39387136611094     -0.71222118850080
  C   7.36008831563800     -1.99408156333714     -1.25026471540961
  N   6.98653034475346     -1.55721891370789     -2.44978400568083
  C   7.77315429906250     -0.71635196000756     -3.12004941280479
  C   8.98624027425013     -0.26031288780202     -2.63771378827681
  C   9.40638104019716     -0.70823736437581     -1.39210804127611
  C   8.58133921740061     -1.57666039958209     -0.71951120575245
  F   8.95756918806909     -2.03340374121946      0.48519380933810
  H   0.61600316608352      1.11359648341326      0.48604724455211
  H   0.68359906687648     -0.53474644350646      1.10626284258003
  H   0.32022542131686     -0.23768666366868     -0.59606975355939
  H   2.95811637943510      0.52737696966584      0.74691907732531
  H   2.62714840876012      0.61338211303383     -0.97631449563034
  H   2.85209852724881     -1.91401461364525      0.70595729151714
  H   2.15879985245653     -1.66881074624041     -2.11789505021517
  H   1.22421161239790     -2.26698928746114     -0.92556591924520
  H   4.58216773716570     -0.89137980304854     -1.57624178919156
  H   5.07624567334374     -0.97603019978680      1.30337167999431
  H   5.06386101333298      0.32938175048386      0.32505074738152
  H   4.48811618108379     -3.47481895718491     -0.05315373896769
  H   5.12198068897904     -2.87788160457475     -2.82556234613874
  H   3.69731699571999     -3.46742746986241     -2.22760573665208
  H   6.63608682166349     -2.72970919285157      0.57036205608019
  H   6.96081330691160     -4.65394754096309     -1.76785635470383
  H   6.38012942639096     -5.10446327451863     -0.16830442379315
  H   8.03186140414765     -4.49193125935025     -0.35807304628589
  H   7.41121677607991     -0.39379694299501     -4.08968233274511
  H   9.58994975255311      0.42249476462315     -3.21902247473336
  H   10.34242798328656     -0.39779853569252     -0.94686001167479
