31
Coordinates from ORCA-job 24746optt
  C   1.22303581208578      1.25176020001310      1.89500094197263
  C   2.73154803990967      1.42944694489423      1.80336227794307
  C   3.26588163576855      1.16988149833645      0.39402105728462
  N   2.76704774302859      2.06999475807735     -0.64533500325202
  C   4.76695131969293      1.21544159916552      0.37477377387898
  N   5.57020863172896      0.80818971714196      1.34276105499149
  C   6.80297398255198      1.01348157156975      0.84128725957741
  C   6.78465797287539      1.54133380660274     -0.41568150552142
  N   5.45293087707562      1.66589148495808     -0.70026083017685
  C   7.95680351670071      1.87673016729356     -1.19436447432707
  N   7.84345729620225      2.37390825596563     -2.36269959025090
  C   9.02209066342620      2.71443162758073     -3.13921165500662
  C   9.12538614042487      1.53586852189287     -0.39184382790829
  F   10.37090456303737      1.73014343856763     -0.89260639795690
  C   9.08250927425989      1.02550425152322      0.86461505838579
  N   10.19571972227736      0.79268030483323      1.62466389690941
  O   7.94295829811047      0.73704351700809      1.52488276332494
  H   0.87171972686994      1.41614339201510      2.91327380932121
  H   0.93054272215350      0.24105884752804      1.60164274331452
  H   0.69418082497643      1.95499427171710      1.24906898825909
  H   3.24212415851437      0.75477302247177      2.49159363540149
  H   3.01628915120524      2.44447570952604      2.09750569308878
  H   2.96811799988981      0.15741152658616      0.09843099889366
  H   2.77505074437762      3.02990876974066     -0.31437837562935
  H   1.81200423553159      1.84356410962705     -0.88951766565592
  H   5.04076172148262      2.02448125045285     -1.54853488146865
  H   8.69638084201241      3.11692923838075     -4.09663820181800
  H   9.65598470043602      1.84556116857690     -3.33339757646384
  H   9.63662107339762      3.47049857630538     -2.64319092574369
  H   11.06447277489902      0.75681330398865      1.11620909252262
  H   10.08568383509711      0.09165514765936      2.34056786610979
