26
Coordinates from ORCA-job 2475optt
  Br  1.16388241551407      0.47448071495496      0.56535922678198
  C   3.00516081902689      0.22149284153211      0.19800220887504
  C   3.50336396279305     -1.01975173437479     -0.07419571487424
  C   2.51104831004537     -2.16391208341398     -0.05349401591153
  C   2.23011364153975     -2.66772345150839      1.41012765207482
  C   3.23369961661619     -3.83602990805864      1.19340154677151
  C   4.68522521931118     -3.42615206109501      1.57675187723397
  N   5.69337102941085     -3.45194359312156      0.53424200913593
  C   5.47985615963441     -2.60622317669859     -0.64561615347730
  C   4.92305893503568     -1.23888877098742     -0.31251601584813
  C   5.81377396392332     -0.22840044378058     -0.25449154239973
  S   5.49404071986608      1.42007269770808      0.04426909648948
  C   3.73651681940447      1.48875547745594      0.26868450545519
  O   3.24674874177508      2.56788818185655      0.47771866066498
  C   2.95263365525332     -3.61298111220667     -0.27699368762591
  O   2.78533778655810     -4.35274489641630     -1.19951154754034
  H   1.63465687552957     -1.90131439413699     -0.64263607801266
  H   1.20075317586181     -3.00204817892903      1.51545664834273
  H   2.47997528013094     -1.96376675737482      2.20169791477257
  H   2.96907274768352     -4.82161966811856      1.57172864978586
  H   5.03088399252638     -4.07956677235205      2.37682934887397
  H   4.66661477639895     -2.41651732765952      1.99235063242879
  H   5.89308090982646     -4.40058705342764      0.24185016164492
  H   4.84685583041510     -3.07111586518400     -1.40456369798168
  H   6.45320325470068     -2.46284755940320     -1.11558574491836
  H   6.86607136121870     -0.42855510525988     -0.41586594074186
