29
Coordinates from ORCA-job 24758optt
  C   1.10796489669746      0.20021867502015      0.00781380869395
  C   2.62408253530634      0.10215195157322      0.00997769183255
  O   3.20732385775124      1.21905361507046      0.66322363517333
  C   3.13260571908512     -1.19092328134347      0.66457845756629
  C   2.51229398828218     -2.48626672763161      0.09303378361144
  C   2.72257491224905     -2.70066398770141     -1.39629165987239
  O   2.94713324697504     -3.60576126729781      0.84191994058417
  C   4.63315445917547     -1.21240956259649      0.62583257027576
  C   5.38423413494249     -1.41452097077498      1.72506339406936
  F   4.85403232386285     -1.60920804716469      2.92364685727950
  C   6.83724347448887     -1.39202276017758      1.69263778540526
  O   7.58515750657396     -1.53810358094962      2.60378439492101
  O   7.33838247300182     -1.16735523643522      0.41840032591917
  C   6.52096791597894     -0.98124047565070     -0.63431134095609
  N   5.24743734286378     -0.99445071342650     -0.59622506301193
  C   7.23482425239245     -0.76024892921858     -1.85605372231856
  C   7.83027432530951     -0.57642594261518     -2.87644943819145
  H   0.81325204122897      1.18854496702739     -0.34221804275132
  H   0.70914742054036      0.05404569681795      1.01590499208278
  H   0.65417662172408     -0.54406143078258     -0.64709841099089
  H   3.00146975974429      0.15547703876780     -1.01209703904276
  H   2.86150562762436      1.27157032869131      1.56120553984981
  H   2.83662994435500     -1.16857375104103      1.71755095601836
  H   1.44165697908331     -2.42803931971123      0.29535900383125
  H   3.78043397295007     -2.82824244046442     -1.63049246365383
  H   2.35753397783885     -1.85395404513606     -1.97918904336175
  H   2.18444979422021     -3.59593329335657     -1.70637413192905
  H   3.85007506851491     -3.82574274932499      0.58783509483159
  H   8.35498142723898     -0.41091376016755     -3.78796787586554
