32
Coordinates from ORCA-job 24766optt
  C   0.99117390668042     -0.43580355989362      0.12950823687604
  C   2.46055176269105     -0.13454629176217      0.14290672711590
  C   2.99402360832765      1.11130721426565      0.08596823709265
  C   2.18674150676057      2.37724287888640      0.04891492713543
  C   1.98285399220016      3.02137727753528      1.45391788169823
  C   0.87206183601653      2.31660265439944      2.22327511089210
  O   3.12585766539807      2.89178676354706      2.26771166239982
  C   1.63183631205015      4.50721063547615      1.28296775170012
  N   0.55440380456577      4.76543963615680      0.45911650899709
  N   2.21308342699484      5.45919345906877      1.88201750386177
  C   4.44985002958158      1.29024373056464      0.08945897784161
  N   5.14386286035559      2.34362153870718     -0.03957615028543
  O   5.19988923284354      0.15059748560884      0.27754086270210
  C   4.63578052390259     -1.04614786292336      0.30498090606943
  F   5.54328657055962     -1.99481564949156      0.45465004726560
  C   3.32656375770982     -1.29506879394532      0.23190890040107
  N   2.78490628356228     -2.59107534248074      0.36656878639944
  H   0.37211944898297      0.45341190890489      0.16790544822100
  H   0.74341334704593     -1.07314933576016      0.97986938084999
  H   0.73104680338761     -0.99699174842087     -0.77226677518474
  H   1.20998543658066      2.18157202882172     -0.39048191432958
  H   2.66927152957402      3.09963237428271     -0.61473761378752
  H   1.13090225654890      1.26500652579871      2.35132081814401
  H   -0.08334503889951      2.40399326567650      1.70659418037959
  H   0.77905311443433      2.77179906497271      3.20882830644737
  H   3.93415520618479      3.08380013800518      1.77600041468921
  H   0.37802117029894      4.14760677536712     -0.31421221984785
  H   0.42135332352141      5.74475655543250      0.25666230113267
  H   2.91642617099527      5.09087340667192      2.51750998134919
  H   4.56968138768347      3.15753126267833     -0.22547467768798
  H   3.50584682344959     -3.29457029020800      0.45278642209338
  H   2.17234194001132     -2.83943770594273     -0.40014093063173
