31
Coordinates from ORCA-job 24765optt
  C   2.93071865342162     -1.61251983473732     -0.50267879523766
  C   2.33614641935244     -0.25154325012163     -0.18029028832823
  O   2.42577375879122      0.04146439139074      1.19873445395541
  C   3.00079237855422      0.86162897671672     -0.99240367644499
  N   4.40409528523995      0.95603278599622     -0.59633613486185
  C   5.04309416203362      2.00485057377205     -0.91916798453623
  C   6.52574829803388      2.05103526172065     -0.63841197549314
  N   7.25224198302026      1.77194054244547     -1.87589907436573
  N   4.45459011063607      3.12273113676185     -1.52118303674075
  C   5.25116835141241      4.27124671441326     -1.94283174012224
  C   3.11189170450030      3.31214967183823     -1.25453535964087
  N   2.61655235584426      4.54078790867074     -1.32958677957061
  C   1.35310085252416      4.64558483079280     -0.97270632593578
  F   0.84244035130715      5.86048081300772     -1.09681951954482
  N   0.54634819295557      3.73211535953515     -0.50310447342344
  C   1.06663334658537      2.49753715002701     -0.44556486607632
  C   2.34406277874892      2.20666176472231     -0.86536723697733
  H   2.45178993173869     -2.37470574457726      0.11027233757588
  H   4.00122568096808     -1.61202547448229     -0.29482216032843
  H   2.78137988413189     -1.86442314794587     -1.55428870702677
  H   1.26901034052159     -0.26626972035202     -0.41378076250007
  H   3.35863460255445      0.20688477890388      1.38849124068164
  H   2.97803987955541      0.56757410242173     -2.05213793920592
  H   6.70572501736354      1.32637553206120      0.15816869684409
  H   6.81699275171181      3.03931141867255     -0.28004962798489
  H   7.04770863962628      0.82903912177462     -2.18695915066895
  H   8.25162848317627      1.83100114815248     -1.72400595885506
  H   6.18899315350946      3.90648298328620     -2.35047042521808
  H   5.42952441349423      4.95992090783321     -1.11423530281613
  H   4.70095642501283      4.80676099814473     -2.71107186897126
  H   0.41599181367400      1.72588829915486     -0.05195755818146
