32
Coordinates from ORCA-job 24785optt
  C   0.87161054712774      0.44020767475611     -0.31702880335936
  C   2.33163270186158      0.12631726659593     -0.02621930896232
  C   2.92131559055576      1.09916855339394      0.98267938832718
  O   2.22228542674207      1.73834494733655      1.72229652814175
  C   4.40619866243484      1.37529016903646      0.93003758885926
  C   4.79082230995452      2.65802902587936      1.04177522972506
  C   6.17090175926869      3.09041782622003      0.82516700446211
  N   6.62387034652051      4.27935466602345      0.96145252960695
  C   7.04138446844076      2.01802107412875      0.36890998578359
  C   6.57378676844693      0.77031929258359      0.29282697779313
  F   7.36709508985634     -0.22365628600684     -0.11821090795652
  N   5.29733809022724      0.35569516416259      0.58987970947404
  C   5.08346692315360     -1.02845060504152      1.08684785225297
  C   5.11138730152836     -2.06725326191048     -0.02619046212909
  C   6.04508641534529     -1.36453501009238      2.22494697448682
  C   5.77007698836086     -0.57255463557123      3.47878553273730
  O   4.78567474029536      0.09258688092309      3.63854296332769
  H   0.46183217530700     -0.27984772812614     -1.02408223381917
  H   0.76786352561122      1.43904442629414     -0.73980588583623
  H   0.28538916956698      0.40814517906247      0.59923319638184
  H   2.94331388469226      0.14990532817122     -0.93154110706204
  H   2.41681977634347     -0.88827603719118      0.37252569003493
  H   4.03198507555454      3.39525355670313      1.26831988306042
  H   5.88631311943866      4.91222917295283      1.26666977111559
  H   8.05558334586780      2.23210658856955      0.06689291277140
  H   4.09236099602991     -1.01141037925079      1.53252744384054
  H   6.11670025781384     -2.21279534263557     -0.41605458093489
  H   4.46269658114401     -1.76425804528692     -0.84711041493740
  H   4.75117589410447     -3.02128941616656      0.36182501741861
  H   7.09138441404262     -1.24114410161840      1.93776278041346
  H   5.93646644120924     -2.42214833250052      2.49230693878096
  H   6.53018121315326     -0.65881761139468      4.27703180620136
