27
Coordinates from ORCA-job 24789optt
  C   1.28735358087252     -0.77699221169315      0.10746702485271
  C   2.52818734511872      0.10058613914196      0.06978930150213
  N   3.08764850367302      0.08337924103553     -1.26540515818687
  C   4.31506832191066      0.14992955087359     -1.49937954391966
  N   4.82248676079821     -0.06519662905365     -2.78083818668155
  C   6.00749634441709     -0.47762962142658     -2.90102935487172
  F   6.45271277986470     -0.71516550135037     -4.13652867872165
  C   6.99961984093316     -0.67139197743655     -1.86026567439282
  C   8.34979321222102     -1.24515359620753     -2.15475810250342
  C   8.86900055416796     -2.24567979022542     -1.15188347953866
  O   8.35668594524418     -2.48744741531166     -0.09576217019816
  C   6.60691217850836     -0.14675751009443     -0.68539695345345
  C   7.32803228129167      0.15508684479808      0.59334579742061
  O   6.51053676211038      1.15401230460515      1.20464418499506
  C   5.34000036943181      1.29323008761944      0.54452646237097
  O   4.49760076639368      2.07973690623382      0.81861863852804
  N   5.34996044867112      0.38235739477242     -0.52635656002294
  H   0.83590473024435     -0.75266212938162      1.09986534954634
  H   1.53742224619926     -1.80989457977359     -0.13529242964554
  H   0.55691793959734     -0.42568340192903     -0.62015909714543
  H   3.25172479217513     -0.24077735286928      0.81969977506682
  H   2.27288971868056      1.12904832764923      0.33028527085323
  H   9.12070930474871     -0.46567998824643     -2.22788726414641
  H   8.35039675433520     -1.72808792189357     -3.13414182417239
  H   9.80385062211817     -2.75267848548923     -1.45327519926513
  H   8.32685396470853      0.55891384737968      0.43181690370102
  H   7.38523393156435     -0.72240253172678      1.23630096802891
