36
Coordinates from ORCA-job 24783optt
  C   0.85842528802937      0.36246709266459     -0.00988558887107
  C   2.28516011804680      0.20978718031920      0.47016199147853
  O   3.10580646243697      0.94002340461131     -0.41896757671111
  C   4.52773321362527      0.82344816457375     -0.32380853875623
  C   5.01434866188385      0.46940748310736      1.07552515386404
  C   5.03843657478530     -0.16509017081383     -1.37804563031130
  C   4.44270394726067     -1.56475386550388     -1.29473032723681
  C   5.00147523271553      2.23486635373704     -0.67884736643013
  N   6.43757890005146      2.34674098324054     -0.74605944827083
  C   6.93844728285343      3.48857834292181     -0.97625179253765
  S   5.94936806079512      4.93286130782807     -1.23157871686705
  C   7.13318505352075      6.19284892204409     -1.44434203713777
  C   6.56323641458184      7.56029796330299     -1.65360300576439
  C   8.44061465920382      5.91662449569292     -1.41389721773276
  F   9.31589769608592      6.91952329834961     -1.57909082260127
  N   9.05809249694997      4.71509144915328     -1.23615477510651
  C   8.39683683771821      3.64228589136342     -1.04450958525861
  H   0.17310623711328     -0.15850113050259      0.65932594756146
  H   0.75033285246309     -0.04984369884080     -1.01334635401467
  H   0.58281922157557      1.41656731453844     -0.04163929538021
  H   2.56505402482655     -0.84751261320225      0.49193563247692
  H   2.38661754786161      0.59846985851033      1.48910569183810
  H   4.71796875239422     -0.53472377167584      1.37648217390225
  H   4.62810224904119      1.17883263821347      1.80925762254455
  H   6.10273439239935      0.52574596768168      1.08737200745602
  H   6.12682679680969     -0.20660439316188     -1.29991408105916
  H   4.80814483166619      0.25647243494039     -2.36070731179352
  H   4.62356439614326     -2.03297063414231     -0.32545303295864
  H   4.88332197964154     -2.20951136327030     -2.05554992675977
  H   3.36610013857553     -1.53858066102639     -1.46798103412123
  H   4.59696403747190      2.93442271567959      0.06738867978776
  H   4.55260692897920      2.51406562121199     -1.64289075529674
  H   5.95972943061192      7.85796000954659     -0.79425055055757
  H   5.91944254960897      7.57535289662005     -2.53489306659544
  H   7.36236915688941      8.28416148905493     -1.78989918630865
  H   8.94284757538312      2.71218902323257     -0.90725787647052
