32
Coordinates from ORCA-job 24786optt
  C   7.13079269073119     -0.23580644220168      0.09245649249806
  C   6.37908852396558     -1.45368396652570      0.60685050095957
  C   6.64084971092956     -1.70250881306862      2.07852069934861
  O   4.96335456039113     -1.30600415121754      0.49210991487444
  C   4.47013775879065     -1.01639792062186     -0.79795411174932
  C   4.82645678835232     -2.10226567223457     -1.78027636870553
  C   5.44279406336368     -1.86066469941589     -2.96568157469289
  N   5.71558250187159     -0.54901165193959     -3.41234919933001
  C   5.90154201688949     -2.97179329426805     -3.74044591251211
  C   5.74714727034857     -4.22513261486234     -3.28571019891336
  F   6.15977821222519     -5.27074712222825     -3.98942441442107
  C   5.07982488293976     -4.54386236124992     -2.03130563389189
  O   4.88432895744981     -5.67430723099709     -1.62588540521929
  N   4.63855659507196     -3.41273486672512     -1.35726657692782
  C   3.79516429070527     -3.66366198207366     -0.17945237843664
  C   4.40078182128814     -4.49179791221472      0.90910308217711
  O   2.69962503020647     -3.19897189471598     -0.15948928554358
  H   8.19054975270894     -0.33688208571175      0.32867633110462
  H   6.75392200112920      0.66541442240287      0.58132015856461
  H   7.03979332253967     -0.11919265696954     -0.98825639088225
  H   6.68730251861576     -2.33547698073773      0.02755251283981
  H   6.35437768393987     -0.82478101303563      2.65979572390196
  H   7.69810284185330     -1.90606877344052      2.24839717097757
  H   6.05866559142782     -2.55330742002374      2.43130745840074
  H   4.86971463118995     -0.07177942924085     -1.17184214675473
  H   3.39152267693910     -0.92038401661515     -0.68491006326395
  H   4.90372837128004      0.04989185822078     -3.45524852527072
  H   6.18811685839969     -0.53381645698257     -4.30387107001893
  H   6.38392600525465     -2.81375740666019     -4.69814942535006
  H   5.48686266683923     -4.49691133098611      0.85039894931322
  H   4.04815497955987     -5.51646629841679      0.79997104304266
  H   4.05945442280239     -4.08512981524241      1.85905864388122
