26
Coordinates from ORCA-job 24782optt
  C   1.23897013737235     -0.02231899761136     -1.01690069168317
  C   2.61784153733702     -0.04901299368445     -0.42958285503688
  C   3.29515196651359      1.06647886951339     -0.10961960780993
  O   2.73151717352654      2.30741779275639     -0.26015942072722
  C   3.13774924597839      2.99648895287696     -1.44950567868205
  C   2.51424075853658      4.34359547388888     -1.39806947209176
  C   1.76143727584798      4.89393208922031     -0.41825943078063
  O   1.31654747803003      4.50733459006396      0.77350454684323
  O   1.40292379126223      6.13475614951227     -0.79776282323648
  C   1.97126185091185      6.29092703613733     -2.01904764026608
  N   2.63496207006260      5.27269162109250     -2.42194045446359
  C   4.63022964762707      1.02149466201552      0.44349914845486
  F   5.16039178544999      2.22008857510267      0.69119439674378
  C   5.34776467807768     -0.07369962493551      0.71691053312870
  C   4.87494754323820     -1.42771515546397      0.49151472565640
  N   5.49190556158273     -2.51047536523814      0.72968669660616
  S   3.24982360983499     -1.64661777925832     -0.19471807932297
  H   0.88294913101398      1.00153672735380     -1.09930844092976
  H   0.54842931107495     -0.58881357973295     -0.39028948755474
  H   1.24020650227706     -0.48309926480791     -2.00594883423939
  H   2.79971775379394      2.43400005515164     -2.32606445227227
  H   4.22902178276045      3.06433168090510     -1.48314692990064
  H   1.65982347747832      3.61369328484624      0.92343129316662
  H   1.81301687847864      7.23500626985748     -2.51117086571468
  H   6.34016240847679      0.04616114410069      1.13438397803618
  H   6.41500664345582     -2.33118221366266      1.12036984607635
