27
Coordinates from ORCA-job 24791optt
  C   1.16534096556575     -0.03119754667718     -0.16652419422595
  C   2.54256953500402     -0.20424092775676      0.41728829915856
  C   2.76657777510497     -1.37162300644553      1.43268449773880
  N   1.86352462410361     -1.32926671538620      2.55045744522639
  C   4.26347782120714     -1.01952075346844      1.62423144531939
  O   4.73355551192790     -1.09205053399282      0.26240418069336
  C   3.68096406957897     -0.60487868995713     -0.55771774719897
  C   4.22765227482677      0.49117551964587     -1.46375455653917
  F   3.23081081111575      1.10974321228349     -2.10975426627560
  F   4.92061230166613      1.41421651920511     -0.80131606357091
  F   5.03847887901656     -0.03039062130110     -2.38917897155554
  C   4.16116088610166      0.43602813501585      1.99931488231149
  C   4.81617110843814      1.32745050845336      2.81348590598177
  N   4.41051252093383      2.60280520548769      2.87927263224488
  C   3.38265830402752      2.95924245864635      2.12532089098008
  N   2.67989561075748      2.18204688894302      1.28775058311107
  C   3.09172028659002      0.93427593008898      1.25003802993680
  H   0.90868177592876     -0.87766844622840     -0.80553227694562
  H   1.10660223414806      0.88450588757033     -0.75219558184626
  H   0.43612948845681      0.02500926192899      0.64096357886652
  H   2.67217659231437     -2.34001830467419      0.93810249927468
  H   1.97129072932941     -0.48441901591395      3.10013687903631
  H   1.98419877343082     -2.12608720006511      3.16138860134625
  H   4.87691101321128     -1.66858231211815      2.24119541516138
  H   3.32405644424742     -1.39615418143959     -1.22508749245948
  H   5.66375470987096      1.05137303497518      3.43203515309712
  H   3.06751495309586      3.99422569318036      2.19399023113262
