27
Coordinates from ORCA-job 24793optt
  C   1.01505723454103     -1.04949914752782      0.17002663450932
  C   2.50094032703152     -0.71403871463104      0.16388547011988
  C   3.05395443026193     -0.56691193707036     -1.25551004127522
  C   2.57432098038335      0.70333657755804     -1.93758486673355
  O   1.98688193689725      1.58792419548313     -1.38373199131883
  C   4.55286060911863     -0.54739154743733     -1.31764686126010
  C   5.40665823514451      0.54587460755240     -1.37923710591038
  C   6.73237217569171      0.09873109984543     -1.39265616200513
  C   6.68344159905641     -1.27991475113766     -1.33428292749219
  N   5.34111124612034     -1.66482703420075     -1.28702267424694
  C   5.03970201859266     -3.00663891528132     -1.19386331258468
  F   3.75633724272090     -3.32947982413222     -1.12193437127465
  C   6.04267063939950     -3.90244853062442     -1.17200641067251
  F   5.76229156327092     -5.19732698088448     -1.08216404137507
  N   7.34849811347587     -3.57667229868454     -1.23792211790613
  C   7.64894578318390     -2.32026245851395     -1.31364011837451
  O   8.92858652317695     -1.93859767434786     -1.37939868891469
  H   0.63993592039036     -1.13245864970506      1.18966126622443
  H   0.83233878213134     -2.00272689767075     -0.33077986975961
  H   0.43849630201128     -0.27606930013666     -0.33719057102262
  H   3.06078382344879     -1.49643961582417      0.67896736849763
  H   2.68303852798385      0.22056033731520      0.69733605779284
  H   2.68920694123956     -1.38910597210337     -1.88113218663420
  H   2.82603537953540      0.77526537334793     -3.01313660371229
  H   5.07473824355510      1.57206909107979     -1.40447465415813
  H   7.63215774465633      0.68737263186830     -1.43727528914858
  H   9.47463767698056     -2.73632366413645     -1.34628593136410
