27
Coordinates from ORCA-job 24806optt
  C   0.73792216973570     -0.19887694839336     -1.36549326418316
  C   1.38145375986697     -1.39514810272814     -0.68472865587953
  O   0.67590526085739     -1.70986011702333      0.49946800849549
  C   2.88884256945283     -1.22954337051962     -0.39410798051297
  C   3.39007428309670     -2.65320220168923     -0.03828175081313
  C   2.30600878451809     -3.62084461629476     -0.56586417838476
  C   1.40101885952002     -2.74174033894358     -1.43436635710573
  S   2.05317795074137     -2.56321555533645     -3.08479198743595
  O   1.10596833669968     -1.88023869555918     -3.90873877456873
  O   2.59148360899005     -3.80479659441533     -3.54277172749997
  N   3.34141557378641     -1.53054278117928     -2.78922841114210
  C   3.61785721828344     -0.78406651841095     -1.64604672230621
  O   4.43322689475084      0.09666431093366     -1.67393757413347
  C   3.68691067041142     -2.84780626765379      1.43127400729247
  F   2.61637707540842     -2.71345266688118      2.21802857149943
  F   4.17771433300150     -4.07665321949822      1.63862252007869
  F   4.60105789241869     -1.96937319197019      1.86260998360290
  H   0.76699337844092      0.64875305892483     -0.67682344436783
  H   -0.30202875344421     -0.42484130459744     -1.59642259132433
  H   1.23696963350948      0.09452998920819     -2.28653899699265
  H   0.70546938928530     -0.95928036755145      1.10327726894968
  H   3.09215720931308     -0.48732799353167      0.37717316626870
  H   4.34623831658910     -2.84140517993915     -0.52969503813600
  H   1.70881210583744     -4.00355076577097      0.25951996983764
  H   2.72329649878424     -4.45720894714771     -1.11947477481538
  H   0.39921363885906     -3.14275218038776     -1.59335262408821
  H   3.83446334128602     -1.23221943364387     -3.62530864233486
