26
Coordinates from ORCA-job 24800optt
  C   0.81403995922502      0.23514781216314     -0.00653870938262
  C   2.30192117487815      0.14639361665971     -0.01876466687866
  C   3.10997072901110      1.19875748491482      0.19793350032734
  C   4.53687155887508      1.03643612400727      0.16846047714914
  C   5.44671191860067      2.00030471406819      0.35949565678910
  F   5.13007353319968      3.25395634795141      0.60015088608871
  N   6.81032749107095      1.79507599098274      0.32956121771802
  N   7.29992230369485      0.68863511413312      0.12652079954785
  O   6.45918271938920     -0.39802361505863     -0.08803225036756
  C   5.10273403721871     -0.27064647173841     -0.08241965843429
  C   4.32847894061116     -1.34936619244291     -0.32025794832846
  O   4.89050837567858     -2.53629403828843     -0.62993439290915
  C   4.49595659656166     -3.67383529922813      0.15662400148520
  C   5.74529458124622     -4.49833425885402      0.35150809450507
  O   6.73138632482497     -3.77534591844134      1.05268881039978
  C   2.87030589458113     -1.20277955509626     -0.31312626717862
  O   2.13852745670268     -2.14869540831375     -0.53846833298828
  H   0.48058889576271      1.24477135606252      0.22420973727180
  H   0.40462985020977     -0.46289592311132      0.72519873662303
  H   0.41459200719781     -0.07182964752913     -0.97435502409793
  H   2.71182634405008      2.18512988732140      0.39872747978712
  H   3.71381575021595     -4.22294936921014     -0.36613331859625
  H   4.11685783714056     -3.33199740837224      1.12220726714605
  H   6.11836061000413     -4.83152147857791     -0.62321467532555
  H   5.50699355033311     -5.38102149155220      0.94583341189674
  H   6.91012155971602     -2.97007237244947      0.55312516775240
