27
Coordinates from ORCA-job 24811optt
  C   0.97086725042467     -0.25263027866841     -0.01342212122425
  C   2.48845784705818     -0.32730914170146     -0.02281823641667
  O   3.05374941635914      0.73903208406426     -0.75828870053621
  C   3.04296652944661     -0.38007175909224      1.40842431411213
  C   4.54325306242020     -0.38830898203122      1.44371474479908
  C   5.24803736855077     -1.57391452240789      1.38489563059386
  F   4.59689703347598     -2.74028560715909      1.34326864382987
  C   6.62924061631919     -1.56571932777860      1.37922226517901
  C   7.24122445418806     -0.31778801390292      1.43317805867807
  O   8.56978313532854     -0.46601164341164      1.41736165817911
  N   8.86058535078529     -1.83099937088286      1.35835912795646
  C   7.73441782922232     -2.47905862611597      1.32751243759630
  N   7.66803372928396     -3.83970533753276      1.19396746582758
  N   6.64832548298014      0.85221362901944      1.49347676348420
  C   5.31565496655529      0.79770406824379      1.49419582342811
  C   4.63781098966704      2.06628930404666      1.56468942529298
  C   4.06220130155150      3.11606541892356      1.62759367611614
  H   0.59455473935400     -0.20983585897019     -1.03443220373419
  H   0.64286344791458      0.64747680105953      0.51314346428310
  H   0.53556509211996     -1.11882963705588      0.48689052155516
  H   2.80656400348122     -1.22900101036351     -0.55270822771961
  H   2.94784611614171      1.56053880283354     -0.26412942152335
  H   2.65594223015097     -1.27453793666523      1.89852430302999
  H   2.66926309405891      0.48417998917172      1.96291160113800
  H   8.53138076405186     -4.32778037109366      1.37715936302155
  H   6.84759871832538     -4.28068383044547      1.57597421167986
  H   3.57791543078451      4.06197115791651      1.69133541137372
