28
Coordinates from ORCA-job 2482optt
  Br  7.24273138731976      4.92991215712627     -5.68694893960473
  C   6.03791642402278      5.52202690496430     -4.37843826207863
  C   6.07113712708916      5.11461761027513     -3.10311007116097
  C   6.94557940203777      4.12869127636302     -2.35893112609054
  C   5.97003364883359      3.63452784598246     -1.27694649870556
  C   5.22511782436870      4.91033851377771     -0.86090973449240
  C   6.13230065749333      5.84355846459564     -0.02797862438142
  N   6.86931071648251      5.15201630138899      1.00376485812898
  C   7.97574728020403      4.61798954419405      0.71120284738140
  N   8.63956420979584      4.49509408961021     -0.50882628209235
  C   8.25529394761375      4.74811040540923     -1.83952166353028
  N   9.11427148158486      5.31089344111502     -2.57442046503232
  C   5.01958583896393      5.55439240879839     -2.20311239964952
  N   4.08011224533602      6.35581420637217     -2.53370074590998
  N   4.10964708239918      6.79981109790931     -3.80400623786913
  C   4.98402085227045      6.44721156990182     -4.82514667773249
  N   4.91235753227655      6.85471743671037     -6.02874599980920
  H   7.26360262270111      3.31957170545994     -3.02004618976446
  H   6.45439413555222      3.11805968257196     -0.45365756574482
  H   5.26553431134928      2.94148319450008     -1.73889518222526
  H   4.29382077195841      4.70926057428397     -0.33640734392709
  H   5.50412076934945      6.60138694714168      0.43891676142884
  H   6.81644080167307      6.37259112923329     -0.70437781447683
  H   8.55683359159721      4.17269400223552      1.51700405103430
  H   9.64723424242610      4.52650857196026     -0.42456807758945
  H   8.81855178713456      5.34233943734234     -3.54694065804300
  H   3.34710503732456      7.41614663267667     -4.03597920980491
  H   4.12163427084174      7.47623484810011     -6.18327274825814
