33
Coordinates from ORCA-job 24823optt
  C   1.23813710660018      0.17220330764453      0.43093455312221
  C   2.72899482512026     -0.09315410817028      0.55411963753120
  O   3.24041363926508      0.39879221593481      1.78485251634547
  C   3.08398922069496     -1.58023566993632      0.40380484349404
  C   2.50034278492077     -2.16098983603297     -0.90908649071686
  N   2.79081318449909     -1.33864398907133     -2.06537798514119
  C   2.97420837745297     -3.60651266206392     -1.07906024315821
  N   3.62648465495970     -3.94697658331393     -2.10481497683473
  C   4.10843277428099     -5.24953964523728     -2.37231648865863
  O   4.76534485257359     -5.44932550465357     -3.36152651016570
  C   3.78307869653648     -6.33526796467821     -1.44258567740941
  C   3.09478013353424     -6.14789956041164     -0.32349692436141
  F   2.81694047937854     -7.15546925188813      0.49812724602236
  S   2.46469005059921     -4.64642140953422      0.26158511167513
  N   4.50327153396521     -1.90045024986939      0.52947026553619
  C   5.41861812039865     -0.93928276032580     -0.06718994154639
  C   4.93306896302119     -2.23956008446862      1.87599778401406
  H   1.03383847408818      1.20887467521621      0.69659255567268
  H   0.66598178423262     -0.47568234853290      1.10317510021065
  H   0.89656333258236      0.00605359506741     -0.59014474780711
  H   3.24926457587332      0.47159725632402     -0.21813291114813
  H   2.73007465302527      0.02154103566947      2.50953755272489
  H   2.57595902863827     -2.10016540965835      1.22550425304437
  H   1.41342918937924     -2.19778907906424     -0.78966439291574
  H   2.16338384335387     -1.58468702805526     -2.82267760837333
  H   3.71642019198901     -1.56908549804637     -2.41369956316675
  H   4.13043856678810     -7.32714188845591     -1.69678946153746
  H   5.10802266135335     -0.67809968612290     -1.07675376436573
  H   6.40935858900931     -1.39099523431529     -0.12707088853408
  H   5.49139520030374     -0.01528783381405      0.52246452598828
  H   4.25925375616075     -2.98199147279200      2.30579980615458
  H   4.97799608179489     -1.36713475893001      2.54089302329007
  H   5.92901067362654     -2.68327256841352      1.82552980101467
