27
Coordinates from ORCA-job 24833optt
  C   0.75567352439085     -0.31245483345376      0.87682612157914
  C   2.23318032787942     -0.01775629619482      1.05614727375301
  N   2.98857854345796     -1.25509256180538      0.89267019184920
  C   4.36956959728937     -1.31995852141412      0.93689519477933
  C   4.96843836859281     -2.61146997058104      0.77881437352650
  N   4.11591291413322     -3.69053814390570      0.63967264496039
  N   6.26505749101188     -2.84726796958981      0.81271109577387
  C   7.04932463921044     -1.78997166076555      0.97499332956895
  C   8.54463696767346     -1.80262694140220      1.02829838431002
  O   9.30405410718894     -2.72558669936041      0.92660130107950
  N   8.89278254765767     -0.48098633443664      1.23659259391243
  C   7.77898940214085      0.44184232801427      1.25817088381540
  C   7.85850637855468      1.44255654764894      0.17663923243592
  N   7.93836177827902      2.23237142943005     -0.64867195876625
  C   6.60804027883477     -0.49628339196988      1.09768381206607
  C   5.24456980171668     -0.25797188015136      1.08694067571403
  F   4.80398706535505      0.99767432151764      1.24517490641540
  H   0.17090449233888      0.59983397076575      0.98563235720789
  H   0.40562189196509     -1.02430454903184      1.62749552768591
  H   0.56507587697471     -0.73244788977859     -0.11089464638249
  H   2.41133157199291      0.44021491594939      2.03406778154811
  H   2.56897460913349      0.68964714968347      0.29942716951332
  H   2.56016370304823     -2.04762285302134      1.35616298876423
  H   3.31662447163955     -3.52763923590686      0.04207317788607
  H   4.61344246428459     -4.54128223476468      0.41848805697424
  H   9.85258087779000     -0.17989183512792      1.20525335666388
  H   7.72261630746540      0.98901313965242      2.20413417336595
