25
Coordinates from ORCA-job 24832optt
  C   3.92622083126939      0.30627173342579     -0.32569346870512
  C   2.73473134708530      0.33893145515812      0.63385394898771
  C   2.95041524101948     -0.50664086660119      1.84990221436704
  C   3.17818385832837     -0.06054690596799      3.11092683651082
  O   3.19637644883908      1.24786804213490      3.50094288636427
  C   4.34848150242020      1.93806670085291      3.40938561968109
  C   5.54247528342721      1.41392223332484      3.06606097540060
  C   6.71761485550762      2.23399910199528      3.00548875240400
  F   7.82194989744105      1.56718991598025      2.66383368204255
  N   6.84324606964230      3.47110839160534      3.22688949095362
  S   5.55958594881875      4.40672661474351      3.66079897521150
  C   4.13561527694051      3.36973375834747      3.73991565688695
  O   3.06535007968737      3.82704082350007      4.04079656780233
  S   3.40141877375829     -1.35620462814262      4.21043390193163
  N   3.18904337785116     -2.50463327582048      3.04802238755675
  C   2.96743406905273     -1.94250082064275      1.88786116413947
  N   2.80447941230156     -2.71132245607016      0.75595231223299
  H   3.71463182122635      0.88702011308665     -1.22309516574817
  H   4.16248774741825     -0.71626188674107     -0.62140438968345
  H   4.81162750156648      0.72878405866550      0.15067982956838
  H   1.83246523727967     -0.00155120676746      0.11592849411934
  H   2.53170067621175      1.36406579785932      0.94941376115275
  H   5.64687108584921      0.36157424997244      2.83680114399839
  H   2.60793207171212     -3.68314656390524      0.94244702585766
  H   2.23066158534575     -2.31149437999344      0.02985739696686
