32
Coordinates from ORCA-job 24838optt
  C   0.87180884732784     -0.34465619431274     -0.19382823739879
  C   2.26626705010264      0.19536048459237      0.12643823977573
  C   2.15956944709346      1.60222064274245      0.70633305388137
  C   3.15845438677670     -0.69207161947631      1.03277567512411
  C   2.82415205194332     -0.67760634759130      2.53349251918718
  N   1.45850046831289     -0.97024082588197      2.90880386948511
  C   0.83651741774034     -1.99131285228343      2.50522739141077
  C   -0.59352889686830     -2.19696111466225      2.92862222255195
  N   1.27794152146344     -3.02026270791080      1.66721463110874
  C   2.45025107571567     -3.12564983448099      0.89260194372459
  C   2.80386321080613     -4.41148186467770      0.44185253307098
  O   2.08000673682575     -5.48773051107968      0.78759068238309
  N   3.83716628931264     -4.63804297516506     -0.33728095093252
  C   4.54601176153532     -3.57163772680866     -0.63818645669204
  F   5.59238128930801     -3.79641731541005     -1.41493540102275
  N   4.37305596764694     -2.33757115483772     -0.25146949673541
  C   3.30570319854700     -2.09613697611985      0.52671074769047
  H   0.42600904907934      0.26198434087201     -0.98375666809368
  H   0.21464321150481     -0.28684032686930      0.67434582658884
  H   0.89999791672864     -1.37618647584840     -0.54978946349331
  H   2.81051760417622      0.25485447772420     -0.82128813786070
  H   1.57389690813066      1.59356121929752      1.62854115038432
  H   1.65971604738506      2.26666902464978      0.00017594610269
  H   3.14327658693486      2.02119687398886      0.92695213053195
  H   4.16258641778802     -0.26728325437483      0.94936631819686
  H   3.05268949337032      0.31568655126924      2.91929456544034
  H   3.50638417631033     -1.36790732730621      3.04127323643055
  H   -0.85890351881491     -1.43036961247781      3.64883030579426
  H   -0.73235224518127     -3.18257454697972      3.37706787842324
  H   -1.25800635389685     -2.12073525018771      2.06365735550695
  H   0.50915039375411     -3.56266736741301      1.29612606220629
  H   1.57627248914084     -5.29318943298090      1.58824052722881
