28
Coordinates from ORCA-job 24840optt
  C   1.30588263828603      0.61138193808332      0.17721613757473
  C   2.80362356588636      0.33087314992607      0.17646998451456
  C   3.58345173318907      1.45385130902633      0.86757975078720
  N   3.29738194299874      1.49620836409752      2.28925455623539
  C   2.80051422028491      2.53759470902001      2.80810770922798
  N   2.51990212865794      2.53366311051819      4.17564728516711
  N   2.16337616555915      3.59052209018941      4.90065337698557
  C   1.97149693119518      4.66520684893755      4.25437016063474
  F   1.61803001862720      5.75845494388121      4.91765887326920
  C   2.09959066330154      4.73570575361055      2.82037514709092
  N   2.47960452414301      3.72633830127780      2.13479598944721
  C   3.05935830927164     -1.02573718019292      0.82878829094128
  N   4.46689333841079     -1.37986274849228      0.84309298980298
  C   5.39816646274493     -1.18550701613168      1.78305182337524
  N   6.55071036803242     -1.60634635619433      1.32480080095600
  N   6.30323029765996     -2.05798782880349      0.08095439963473
  N   5.06449961717966     -1.92430101326055     -0.21767959225371
  H   1.09347856928680      1.56078801129480     -0.31517761980824
  H   0.92878178504747      0.67044856432942      1.20058011893166
  H   0.75534993449820     -0.17334206740664     -0.34367478046156
  H   3.16304442665693      0.27723264831954     -0.85507709628266
  H   3.35695103349077      2.39769111392130      0.36761085938789
  H   4.65486382932865      1.26892094506309      0.75007888126444
  H   2.70923192003222      1.68957830540724      4.69363853088505
  H   1.85459279294876      5.66362930959853      2.31021334570160
  H   2.53645760780921     -1.81497377091256      0.29015022919876
  H   2.71858083926263     -1.01274325902152      1.86335843340967
  H   5.19695433620976     -0.73928817608593      2.74216141438224
