33
Coordinates from ORCA-job 24858optt
  C   4.46583056843848     -0.59819795905470      1.47764211143859
  C   3.68836032831231     -1.45740875193770      0.47860609310899
  C   2.21410267565673     -1.06410963259023      0.47646468695824
  C   4.24049624822058     -1.45880607146924     -0.95373702042840
  C   4.09354287203850     -0.16758938501956     -1.79625189178609
  O   4.38511616276891      1.00636994898198     -1.06824296711804
  C   5.10453636318859     -0.39269549441348     -2.95819685974711
  N   5.57825104546196      0.74336237921459     -3.70939990353441
  C   4.81981646568994      1.74930046955170     -3.84286689617413
  N   5.19851443846444      2.85320766487438     -4.54365136121681
  C   6.20892252341690     -1.14335277028535     -2.25137561111597
  C   7.54148922280001     -1.29076792199270     -2.57166079674773
  N   8.36268519035817     -2.05353720304533     -1.83610725858390
  C   7.85368765844464     -2.65746112421117     -0.79889863820031
  F   8.69093133257946     -3.42624067902502     -0.09490355886063
  C   6.53841460754002     -2.57005150010761     -0.35415745730838
  C   5.70554430649635     -1.78021315701169     -1.11792166847536
  H   4.14521054333165     -0.83812843918683      2.49279450250996
  H   4.27890918886514      0.46021808663898      1.30526175621457
  H   5.54150554129306     -0.77031997775571      1.42052679873591
  H   3.75752498937942     -2.49694558965719      0.81881151028971
  H   2.10343481360005     -0.01871066702837      0.18061771521383
  H   1.78369915335461     -1.17576707632121      1.47249351433491
  H   1.63419501426424     -1.68121359934855     -0.21325545326251
  H   3.68625234271710     -2.23281249273208     -1.50383778538030
  H   3.07014310857151     -0.04499935639909     -2.15297673949259
  H   5.33637669602273      1.04964858724063     -0.90912664549648
  H   4.63201719347007     -1.09890889902141     -3.65589954610289
  H   3.82872084940105      1.83761613390644     -3.39275786849857
  H   6.03553629447233      2.79310045731884     -5.09963135182169
  H   4.51643751696774      3.54523752633798     -4.79158966916892
  H   7.97365677245358     -0.78696738145050     -3.42761926124614
  H   6.22513797195960     -3.08985612500075      0.54084752096268
