29
Coordinates from ORCA-job 24853optt
  C   0.60390423388248     -0.00833297370188      0.63079905845878
  C   2.05530965990363     -0.04760697177561      0.14920114386203
  O   2.13050923200721      0.02656495685326     -1.25114108015638
  C   2.81045325579285     -1.20011753527196      0.79681852825144
  C   3.43355758870601     -0.68707034529252      1.92850033278152
  O   3.30301703431052      0.65957299759639      2.04033168674754
  C   2.82561035291546      1.11505410601688      0.77469461086593
  C   3.71276769147686      2.01380916517501     -0.00685855949269
  C   2.45862531699868      2.53980394465930      0.65923347269841
  C   4.12242325546183     -1.47228608884040      2.83395682830638
  C   4.18091801082973     -2.81961771252926      2.52724784913717
  F   4.81515097593889     -3.63695630489120      3.38083653616972
  C   3.63356705508539     -3.36644683581329      1.38106854124598
  C   2.94161343046257     -2.54628254849303      0.48809558487004
  C   2.45314161733770     -3.12776266134659     -0.81516777558478
  O   1.17176703881119     -2.66540204922291     -1.21693078886866
  H   0.06116480204512     -0.89487732359443      0.30552709841433
  H   0.11312888596847      0.87369197458524      0.21886548107389
  H   0.56814060652164      0.04375078899023      1.71982477019473
  H   1.59659402743161     -0.70210192037253     -1.59828130458401
  H   3.70492876429670      1.90045931289894     -1.08067674034781
  H   4.65827933452491      2.27324769306776      0.44728824687341
  H   1.61853794190803      2.78927204569980      0.02509004795050
  H   2.57795643622557      3.15002244005327      1.54309481459991
  H   4.59688753257836     -1.06990107668369      3.71700384462484
  H   3.75981958684409     -4.42463326790082      1.19357994982791
  H   2.46856211765629     -4.21914887590990     -0.76049445948273
  H   3.12936462966577     -2.82653292581914     -1.61691312046818
  H   0.51829958441240     -2.96817200813691     -0.57859459796924
