27
Coordinates from ORCA-job 24859optt
  C   0.89791316483497      0.35235379057215      0.19221719668077
  C   2.37448006840490      0.08566546601520      0.00721820314825
  C   2.84431909802553     -1.34478258018739      0.04832485426548
  O   4.00686074682830     -1.70327810213669     -0.62716368597023
  C   5.11476547209218     -0.97937407832658     -0.12158068901101
  C   4.62244005943676     -0.10020385112504      1.07244863217281
  N   4.78761836166376      1.32840892308171      0.86550922729605
  C   4.16010825233061      1.92922609808610     -0.22059339326983
  N   4.37104607097772      3.09787566856748     -0.66054717364775
  C   3.12626407401269      1.04453642988025     -0.85475368314321
  N   2.99898491698290      1.13805387802501     -2.11415333562153
  O   2.05233008446326      0.27095656351868     -2.60625520201113
  C   3.14822268778032     -0.44059152965178      1.19218036045815
  C   5.37011426440243     -0.47398485708135      2.34302045476720
  F   5.24244681410744     -1.77430310073419      2.60686711243458
  F   6.68184693110155     -0.21122091266925      2.21495433815190
  F   4.94230152246232      0.20074950361291      3.40920807828237
  H   0.38393837201281      0.33234968698783     -0.76703390503224
  H   0.73849670676849      1.32597625529920      0.65728524895894
  H   0.45913985098050     -0.40852068151942      0.83988001095802
  H   2.11213211089041     -2.13808863150482      0.09338025989456
  H   5.51999414879675     -0.33145698233458     -0.90013809658044
  H   5.88328440434830     -1.69076893826605      0.18454365090182
  H   5.67435723426328      1.73165376892028      1.13296783392412
  H   5.10815970727668      3.57017962972428     -0.13739085105854
  H   2.09007768330479      0.41779822746035     -3.55673696520817
  H   2.69035719145028     -0.50220964421430      2.16934151825906
