28
Coordinates from ORCA-job 24860optt
  C   0.71899534735907      0.03715475324984     -1.14701602598034
  C   2.05205776316402      0.02688430106227     -0.41205731604337
  N   2.86177742784143     -1.12424468753266     -0.77500577573730
  C   3.78990859319337     -1.12847377545014     -1.77144931886092
  C   4.20393488768380     -2.42027536350023     -1.98808621531334
  C   3.47641426139797     -3.23934673322688     -1.09745236354839
  C   2.65586392185609     -2.41582184850362     -0.35976080898390
  C   1.74621796817769     -2.76092353670831      0.74026823181351
  C   0.76111339813005     -3.66061113376257      0.55009283513510
  F   0.58423096750501     -4.19756897093179     -0.66328558989510
  C   -0.20341445623345     -4.17536286816159      1.51941059424878
  N   -1.07508511463401     -5.07197649324043      1.31115105814040
  S   -0.23475973858416     -3.41522837596940      3.11282639440191
  C   1.19402544232998     -2.42473711212922      3.11287053551173
  O   1.48943532949594     -1.81647679534690      4.30459038629066
  C   1.98244902985716     -2.18850015384059      2.05519106645418
  O   3.10048598997872     -1.41853645712228      2.17307938895443
  H   0.14108249587860      0.92016515452256     -0.87276225118617
  H   0.13473467796756     -0.84835550052770     -0.89354750251254
  H   0.87809921222996      0.04473245043426     -2.22549982771883
  H   1.90527893922978      0.02354636563994      0.66680886854493
  H   2.63580765547711      0.91477191780741     -0.65493609711926
  H   4.07419925941493     -0.20668054009897     -2.25217157163749
  H   4.94870785066820     -2.73586362361977     -2.69862010087826
  H   3.55430841400416     -4.30705548684060     -0.97586152434893
  H   -1.02231366269883     -5.40881829300491      0.35147029798359
  H   1.38791754674124     -2.43777720570241      5.03606522955338
  H   3.16952659256860     -1.13361998749527      3.09368740273155
