29
Coordinates from ORCA-job 24868optt
  C   3.22937416223557      0.18117428474555     -1.19928944684723
  C   2.46036900194496      0.27377060253162      0.09513937750289
  O   1.25334550938694      0.40746346575915      0.12176853736442
  N   3.20173903785943      0.21026227881929      1.25297642164549
  C   2.53946739664028      0.26870176839524      2.55747575784139
  C   2.88882265378567      1.53545165777451      3.33400675572717
  C   2.67031239381147      2.82083084657813      2.56018592513424
  N   1.48660073179355      2.89949904008408      1.87750717398476
  N   3.47317488292427      3.81044688986211      2.55856081916375
  C   4.61474864474715      0.11442757580986      1.24658913479019
  C   5.23058268219630     -1.07759113230568      1.29444265326891
  F   4.54274245830777     -2.20886575236158      1.29037500164521
  S   6.93586925060718     -1.31652158696865      1.31793877099576
  C   7.51913676543234      0.39341792364925      1.58057085015343
  N   8.69171778803212      0.58864051691752      1.99027135129440
  N   6.68359053701071      1.44850727914288      1.26105685430983
  C   5.41732341506193      1.32269420063867      1.14648936195201
  H   2.51638511010971      0.23170233464570     -2.01591862555630
  H   3.79044031146955     -0.75223121936098     -1.25431418327513
  H   3.94192182684412      1.00305367691884     -1.28641383815713
  H   2.83274309103905     -0.60876244273148      3.13770420339551
  H   1.47069202599869      0.19616640888279      2.37084962681487
  H   3.93113825796523      1.50621373367096      3.65673353546067
  H   2.27239292133421      1.56318869072037      4.23608305632647
  H   1.07853995315795      2.06181644809858      1.48706425188141
  H   1.39076519747241      3.72613071811299      1.30745752275244
  H   4.27257419110350      3.63921503140612      3.16166161685415
  H   9.18761725629546     -0.26693696673954      2.22618915664196
  H   4.85187254543233      2.23213372730368      0.94183837693441
