25
Coordinates from ORCA-job 2486optt
  Br  0.95910151634165     -0.09037807705252      0.23411081710539
  C   2.82809413982694     -0.02333935691405     -0.00153715526282
  C   3.54241619236780     -1.16365563727049     -0.19497409463432
  C   2.89387223817358     -2.47628073637465     -0.32054347882843
  C   3.32613222436207     -3.59231765072652      0.33876196548997
  C   4.53904199635854     -3.72707217901084      1.18881125572815
  C   5.76893024921526     -3.49680843492667      0.33449755510945
  N   6.78450354990676     -4.25395130704083      0.25862666998130
  N   5.72602561784908     -2.37038203969720     -0.46754036972481
  C   5.01096360830495     -1.16721707267892     -0.23641750625597
  C   5.73438431825407     -0.03643221474291     -0.17456588818778
  S   5.10880182235594      1.55633049983587     -0.09128798517256
  C   3.36607457035958      1.34217940647144      0.11133582570521
  N   2.62233703724794      2.34683710506885      0.32674466842585
  N   2.49216570957298     -4.59566191339730     -0.06320177847202
  C   1.60356710294054     -4.04937018184139     -0.94349158380428
  N   1.81873610534571     -2.77841667998598     -1.12036999713131
  H   4.60829543972515     -4.70545410782175      1.66091882868327
  H   4.51543145847589     -2.97570379557419      1.98342895634615
  H   6.67607352045582     -5.07901133627034      0.83912363819602
  H   6.58871031202128     -2.25507413699110     -0.98049067372762
  H   6.81588363459228     -0.07287317268444     -0.20720500483011
  H   3.14581441554741      3.21719173745268      0.39543532024325
  H   2.52787365919956     -5.55646418933793      0.23297375815089
  H   0.82876956119919     -4.63167452848878     -1.41514374313287
