32
Coordinates from ORCA-job 24867optt
  C   1.48594251644005     -0.28594970070343     -0.84080527307097
  C   2.91545426283640     -0.05928220421751     -0.36317646905285
  C   3.40950263671526     -1.25865305317405      0.49187975661538
  C   3.68687862939384     -0.58082993049603      1.84837256321376
  O   2.67224271730092      0.43235707177897      1.88785620883045
  C   3.02429675721262      1.10875725027221      0.67508965407538
  C   2.12539712323129      2.30584795467952      0.45387382399499
  N   2.19299729850583      2.76320635998610     -0.93068175259765
  C   4.51677474456360      1.36353791088016      0.91986132711879
  C   4.92360061655142      0.25848187746142      1.66893217107052
  C   6.24175963643122      0.15373245956819      2.01002171742915
  F   6.67063712147113     -0.88837343950887      2.73044148302200
  N   7.15210573433071      1.03444988547969      1.65860413365120
  C   6.76804935341754      2.09374668310931      0.96573515768499
  N   7.73414262280675      3.04685003308220      0.64884572039737
  C   5.42716954455277      2.34547456280190      0.59113646001848
  N   5.13736543258471      3.54603139273218     -0.08715892141689
  H   1.44019734591487     -1.19370446145949     -1.44469918620098
  H   1.12769640371009      0.55017856089449     -1.43784371474504
  H   0.82471660882654     -0.42511646681211      0.01710694307925
  H   3.56928668993039      0.13041447676453     -1.21482054408663
  H   4.29728298430175     -1.74557168310068      0.09195314282237
  H   2.61886817079416     -2.00176282399425      0.59465096790850
  H   3.64236877178989     -1.21056661005483      2.73064853606771
  H   2.38109498222742      3.06929450811711      1.20106207809559
  H   1.10211816446825      1.98893708081428      0.66317738672093
  H   3.14061715078004      2.89365202648296     -1.26266674467865
  H   1.68613755459988      3.62758337537372     -1.06438521871888
  H   8.66227460550611      2.72840383842191      0.88904406097201
  H   7.68830641629288      3.38217775555674     -0.30462565128452
  H   5.78893870171312      4.27519115723355      0.17995562718443
  H   4.19777870079847      3.87250415203008      0.09361455587983
