28
Coordinates from ORCA-job 2487optt
  Br  1.19407542533279     -0.62054171985371     -0.55193868746175
  C   3.02394840846787     -0.32252086210533     -0.16388132258718
  C   3.49725821578620      0.96347546098337     -0.00210007833680
  C   2.83069424347451      2.30840442394730      0.04753413388089
  C   4.04549930506801      3.23346295317494     -0.19297462529661
  C   4.00767279417911      4.54669988577340      0.58494450637802
  C   2.59336825712658      5.02240613767780      0.82361230139157
  N   2.11846672259658      6.17871341623457      0.59534215594649
  N   1.80545416894698      4.05117722473027      1.38885458569189
  C   2.21451588486756      2.66393670398154      1.42049015472217
  C   1.00457560887308      1.80864772889587      1.73347306403393
  O   0.99305491103527      0.96524545583785      2.57887772360014
  O   5.19725845050057      2.47459429064820      0.22789617985718
  C   4.86504089687323      1.15866498705240      0.16201408306392
  C   5.76424514241913      0.11392972788013      0.24003028316969
  C   5.24945571798138     -1.17285591479238      0.11699569480127
  C   3.89688306848341     -1.40267984628301     -0.09890927821161
  H   2.06952639466758      2.44576510008853     -0.72281118045043
  H   4.15145491196125      3.41852693205650     -1.26471622284108
  H   4.58273412388549      5.32096063467600      0.08270347239389
  H   4.46863307038947      4.36200590512077      1.55870444357749
  H   2.82689539514120      6.79428417281909      0.20971500207413
  H   0.83646364253316      4.29858234146089      1.52527643951044
  H   2.95456911958093      2.47141786262022      2.20430966940590
  H   0.10896340650714      2.02777060735220      1.11640262556272
  H   6.82042356615589      0.29804408300868      0.37518921700815
  H   5.92123938513259     -2.01968541298291      0.16728594852751
  H   3.52062976203292     -2.40743228000326     -0.22632028941195
