26
Coordinates from ORCA-job 24874optt
  C   1.08980654948833      0.09280699082251     -0.15768781868317
  C   2.57811977189213      0.02997202382648      0.00773989999649
  C   3.25760889877756     -1.16622938464453      0.14628564458577
  C   4.64068367704064     -1.14835819564577      0.30216997367355
  C   5.32198511314330      0.07269516783782      0.31544089641289
  C   4.54344428779070      1.23217478453523      0.16201122422170
  N   3.22997429583711      1.19716513045223      0.01575806780967
  N   6.72543149156052      0.07132926321035      0.46911438076003
  C   7.49861605929967      1.25134111860632      0.58109539580812
  O   7.06156531939256      2.36200816819185      0.52552806837930
  C   7.46738995893946     -1.13240798582085      0.54821942833967
  O   8.68135615271158     -1.11876997082399      0.62090039870559
  C   6.73390843313546     -2.39411693753660      0.54676900201119
  C   7.56587513213022     -3.64473912827725      0.65138043398418
  O   8.34549875968587     -3.66612459511968      1.82219595219483
  C   5.40294791451909     -2.36360995058554      0.43737780857063
  F   4.70093612235783     -3.49365190425276      0.42540411152181
  H   0.65261735469371     -0.89937016185928     -0.25227656541783
  H   0.84104102009986      0.68119923861199     -1.04052581031603
  H   0.64322557426846      0.59437140390485      0.70181481635563
  H   2.73205344369185     -2.11084801712917      0.13360754908169
  H   5.00015629483398      2.20631823044119      0.15617882931068
  H   8.55299894261866      1.01347316427911      0.73186531200490
  H   8.19620590849600     -3.71193154662800     -0.24198599824665
  H   6.91720812671748     -4.51727218730396      0.67865922730516
  H   8.97734539687784     -2.93942471909252      1.75495977163021
