27
Coordinates from ORCA-job 24886optt
  C   1.07725290816222      0.04361044867594      0.16941372588929
  C   2.55855565012549     -0.04883235261744      0.08891369853548
  N   3.25249146304327     -1.15335305065190      0.13429749299333
  C   4.56351992843874     -0.75451541585413      0.03150758777118
  C   4.65617279776744      0.63828856322114     -0.08033365848326
  N   3.34804317825057      1.06402595913111     -0.04172338864808
  C   5.87199432373019      1.29622823019207     -0.18803315718606
  C   7.02352709186411      0.52305818294872     -0.17099024040669
  C   8.29403875845558      1.27980042727827     -0.24512752238755
  O   9.40463841339005      0.82555856208398     -0.16092397871445
  C   6.97751908815097     -0.89090078004487     -0.06106594742436
  C   8.21640238811160     -1.74405423900352     -0.07106743828286
  O   8.75311200223185     -1.77350704468063     -1.39115945925100
  C   10.09951159818613     -1.73372068642616     -1.51522809417786
  N   10.71284466008668     -1.93533778870619     -2.58971525587292
  C   5.74508595647254     -1.50022992362627      0.02809743584770
  F   5.65577683033557     -2.82593237171617      0.11906528030870
  H   0.67195131626497     -0.95511031885895      0.30417549273799
  H   0.66393065458922      0.47473785907473     -0.74373571331181
  H   0.77181341477191      0.66881992281188      1.00989132915287
  H   3.02206850132919      2.01388854144779     -0.09651343352250
  H   5.94028248642855      2.37358013557800     -0.27538071414640
  H   8.14932539378382      2.36961461040563     -0.37624479048113
  H   7.96157075696789     -2.76225913269106      0.21968368160446
  H   8.95581082258498     -1.34593189314997      0.62285415863585
  H   10.63253871943772     -1.49226255432809     -0.59721062445898
  H   10.05922089703866     -2.14726389049390     -3.34444646672092
