29
Coordinates from ORCA-job 24881optt
  C   1.26953224003808     -0.36006027692157      0.11380442921040
  C   2.74905301780189     -0.11432700389293     -0.14910909118703
  C   3.38392005402635     -1.22824801673444     -0.99277537157706
  C   4.83787811697493     -1.44238603752073     -0.67196314056819
  C   5.18125510118813     -2.83892169050842     -0.24618648505209
  C   5.71773030355296     -0.43047796757784     -0.77368266526119
  C   7.18352241390663     -0.55288879602798     -0.42627290377213
  O   8.00996148586084     -0.56759224407349     -1.57771566030440
  C   5.38917579448177      0.85321306361310     -1.39585753128775
  C   4.24310152407477      1.54533034226167     -1.48349515634837
  C   2.94954588761907      1.24640078555007     -0.79968153807857
  O   2.08554381958847      2.08680279314736     -0.76276635053366
  C   4.23445164134842      2.83172951461852     -2.28461539895797
  F   3.25643216548197      2.82472156909271     -3.19612684407434
  F   4.07199854104934      3.91328117057392     -1.51983085317991
  F   5.37721884727181      3.01129659197951     -2.96240296204863
  H   1.13652777759592     -1.30363422264236      0.64340223013360
  H   0.71957582151089     -0.40943599773088     -0.82749605063992
  H   0.83891825306201      0.44413650392850      0.70547866184478
  H   3.28229381840676     -0.06892332547030      0.80931036531014
  H   3.26873684843506     -0.98745847199288     -2.05714339371336
  H   2.83736453531623     -2.15635294171226     -0.82278506445835
  H   4.81338983624327     -3.53952697361550     -1.00026299885328
  H   4.66117370223740     -3.08762511716323      0.68304926787230
  H   6.24287820217916     -3.01656130591245     -0.10467537784171
  H   7.37005875568644     -1.42290715763376      0.20402891973235
  H   7.49525846595202      0.32514009777124      0.14153416306004
  H   7.72818237921503     -1.28872720927462     -2.14942299388529
  H   6.25332064989431      1.30600232386903     -1.87434020554036
