24
Coordinates from ORCA-job 2489optt
  Br  1.27625508679019     -0.00876368798994      0.95979732796178
  C   3.10259236520017      0.03084412764238      0.47415572123753
  C   3.62594775568660      1.16419758424302     -0.09852118715828
  C   3.11553889093891      2.53838777540968     -0.47192964613688
  C   3.58872138985111      3.51206572239881      0.63262721184403
  C   5.11564843539430      3.54895727619892      0.36418246935767
  C   5.23134660453629      2.61858313656937     -0.87333944807544
  O   3.99912243532166      2.86884591902013     -1.54799708094969
  C   4.99906108481425      1.21407934429241     -0.36607342883885
  C   5.76746784801273      0.11750221957074     -0.07387889348832
  C   7.18833840548638     -0.23660406893242     -0.19661591127571
  O   8.12510108064056      0.40878509277649     -0.55992075340398
  C   7.26472054610922     -1.72893219500797      0.28575502653212
  O   8.23382593385310     -2.42266879743238      0.33543501703508
  N   5.97109213604309     -2.06045477539283      0.64132333868518
  C   5.09012400111971     -1.00366268978272      0.44773201563692
  N   3.81152337929364     -1.07263120721791      0.73015970002322
  H   2.07811345409739      2.61063871682309     -0.78006269872075
  H   3.32861176426540      3.15994570016642      1.62895971757160
  H   3.13825978764247      4.49012777936341      0.47706504630245
  H   5.71517354495740      3.19899864730093      1.20217430791994
  H   5.44596437393382      4.54860692811849      0.09171852268639
  H   6.08220538906905      2.77650194801529     -1.52630066673930
  H   5.69324430694251     -2.96235049615341      0.99655429199330
