32
Coordinates from ORCA-job 24902optt
  C   1.84440675855732      0.48615597553100     -0.83197225421605
  N   2.84358118898548      0.24230266677651      0.19711604401432
  C   2.61708052834150      0.91794240619273      1.48954852041894
  C   1.39183574410979      0.16271187766706      2.08722622625080
  C   1.61747863416111     -1.29590918028468      1.58389222620657
  O   0.60342753102742     -1.72592000813058      0.70008411407220
  C   1.73902369290393     -2.32294754555103      2.71235703665804
  N   0.40355910850445     -2.60326212523337      3.24090253397903
  C   2.92414078901211     -1.12393549490994      0.74547344285724
  C   4.04559341065418     -0.90687825709248      1.73018481717486
  C   5.03976031153040     -1.66132644497944      2.20338342789519
  F   5.23868294975228     -2.92779484701822      1.81181697610868
  C   5.98164734933457     -1.16218794232297      3.20062460090228
  N   6.97093502489629     -1.78121728971851      3.71895775546844
  N   5.71433744792649      0.14299988753179      3.59449008012370
  C   4.68167633216994      0.92748106974596      3.14297187099010
  C   3.84441043229487      0.43239043432498      2.22167921718068
  H   1.93843320085540      1.52297532237249     -1.15755043095599
  H   0.81424396431945      0.29452899286068     -0.52101773410951
  H   2.06128044543187     -0.15664494274139     -1.68491668487435
  H   2.50274444665189      1.99538447653349      1.39723577253131
  H   0.45577187406773      0.54367966951416      1.68049723695482
  H   1.35910988687993      0.24420750324647      3.17435067861486
  H   -0.05058340365353     -2.18012009205001      1.25528877664611
  H   2.44231168463053     -1.96529398337876      3.46872564141173
  H   2.13784260170323     -3.24941360179693      2.29223993190601
  H   0.10170499588915     -1.87548924261344      3.87793710708618
  H   0.38077220462478     -3.47865697738167      3.74624935613448
  H   3.05935337336390     -1.90211096591307     -0.00072574760181
  H   7.04504387962177     -2.71697037848244      3.33339732783417
  H   6.36569155708777      0.50548226677863      4.27402512456128
  H   4.61670205436395      1.91883677052298      3.56852700777565
