29
Coordinates from ORCA-job 24907optt
  C   1.32906367214519      0.16033603794304      0.85277293782075
  C   2.54498165062451      0.08766832500022     -0.06199419604699
  C   2.59299069169210      1.26568149839957     -1.02952974201327
  O   2.76797991335078      2.43669874537208     -0.22509245045656
  C   3.32263941487456      3.56770914117797     -0.74216202981305
  N   3.49541094299614      4.59290676730091     -0.03441256761498
  C   3.71146585255845      3.53622726103038     -2.19432113711709
  C   4.28811858644668      2.20498937110005     -2.58529714403073
  C   5.33137082633020      2.04601325626708     -3.48723842293978
  C   5.75055562915440      0.76852257624176     -3.83262698150370
  C   5.12359768375004     -0.33171172177177     -3.28198903447808
  F   5.53771082969207     -1.54971196719831     -3.64367428694959
  C   4.08037926028426     -0.21203617185577     -2.36430187174382
  N   3.43028533547815     -1.34450078832760     -1.88199568075441
  C   2.68924101782177     -1.20938860765417     -0.84352965866079
  N   2.06414480544180     -2.30263761828070     -0.34061369439252
  C   3.70016841338141      1.08654488943964     -2.02128081227804
  H   1.27527560061739      1.14820568116236      1.30652630944058
  H   1.38852052435148     -0.56818220177312      1.66186083851167
  H   0.40601466894395     -0.00613637406126      0.29274464017432
  H   3.45503392773149      0.16073381217664      0.54671341283734
  H   1.62639942082352      1.35233483613047     -1.54784416379358
  H   3.16297552667503      4.43396618506851      0.91638275777475
  H   4.39608257908820      4.36037054332556     -2.37589452498503
  H   2.80520492717266      3.72488868805188     -2.78253417191132
  H   5.81141315706766      2.91175316364870     -3.92472968577782
  H   6.55668716313765      0.60614784557320     -4.53546636603102
  H   2.13403518041173     -3.15128186211302     -0.87841823330941
  H   1.30725279795665     -2.21311131137433      0.31094596004219
