24
Coordinates from ORCA-job 2490optt
  Br  1.53057875721089      0.31487079100550     -1.07879475479558
  C   3.29762772689150      0.18197864393221     -0.50544567107436
  C   4.04396204783029     -0.94000084247258     -0.55355536558712
  C   3.75640633835144     -2.35876954318881     -0.98427065037937
  C   5.12307448837784     -2.76084225042488     -1.55073945522290
  C   5.85423821548452     -2.38325836218497     -0.24136330814669
  C   5.00627190223075     -3.21591964740904      0.74539380716893
  O   3.67770385688238     -3.14146421885232      0.21312364258959
  C   5.39101101575777     -0.95757098400356     -0.06899250247514
  C   5.98048418106980      0.14548843160016      0.45464288251052
  C   5.20078034020158      1.32750570763373      0.48080764485862
  N   5.48279188528559      2.55420539323514      0.89495445334249
  C   4.34156305724039      3.21869347111788      0.64809550577224
  N   3.34990871612091      2.52161438106923      0.11161411988076
  N   3.89998832386690      1.30606679222853      0.00473481329388
  C   4.17804215953607      4.61520774364300      0.93799488700203
  N   4.05478979054578      5.72927681152255      1.17115148584448
  H   2.86587644816821     -2.52356005641882     -1.58094594259974
  H   5.43419029849900     -2.16279030724372     -2.40486875326556
  H   5.17221340272193     -3.82388863846030     -1.78177574411860
  H   6.92483385938679     -2.55302640254773     -0.18186386089301
  H   5.01880721344208     -2.81230939369961      1.75798172587306
  H   5.32858638078678     -4.25876540234621      0.76239120517919
  H   6.99126959411077      0.17525788226460      0.83472983524227
