38
Coordinates from ORCA-job 24918optt
  C   3.53670846181952      0.71228815910824      0.81987918883000
  C   2.36765083620219      0.07295985099944      0.06107955497290
  C   1.70083802350726      1.12395871619565     -0.82434166138528
  C   2.84183238813652     -1.15971645522384     -0.69021182483854
  C   3.08892754418152     -1.08801942512759     -2.05319373486086
  N   3.56656023408477     -2.09542868793677     -2.78270530000439
  C   3.79225327203982     -3.20837397850795     -2.15153863347266
  F   4.29531600211275     -4.19732111316713     -2.90674200469417
  C   3.56675388885256     -3.46534904154463     -0.80023849643296
  C   3.09078243462643     -2.38944531576989     -0.04465805908164
  C   2.84265562449063     -2.54665668372406      1.43810412650380
  C   1.79680769265154     -3.60084456573169      1.83041399946274
  C   1.31726574265377     -3.33971618377897      3.25508875768856
  C   2.34971091599751     -5.02450252350383      1.73900669481190
  N   2.73587634205584     -5.51092581031992      0.43082319223265
  C   3.83962974743171     -4.87169289831592     -0.27507915554669
  C   5.14351495607337     -4.94305818024650      0.51702712555764
  H   3.19426648502912      1.56204317328498      1.41331960803134
  H   4.28181061734183      1.07218255984241      0.10743993684634
  H   4.03076610237453      0.00419636686319      1.48587163546669
  H   1.61456139401862     -0.24402722931272      0.78643247215610
  H   2.41782629548679      1.60139112059757     -1.49441564223796
  H   1.27438844592061      1.90726038745613     -0.19646877359476
  H   0.89940973429869      0.69557686596403     -1.42744299390562
  H   2.89605040820485     -0.17470447853404     -2.60078740862365
  H   2.53472825120798     -1.59373007180937      1.85911938640821
  H   3.78324129455724     -2.79525375603335      1.93833849214667
  H   0.94476847930066     -3.51547369370234      1.14586381317814
  H   2.15789617344452     -3.38493428561158      3.95300359239731
  H   0.58409171346276     -4.08462881591409      3.56727259772639
  H   0.86009138339445     -2.35366945998607      3.34746314080224
  H   1.60186142348631     -5.71807863760083      2.13144346825140
  H   3.21511449257753     -5.10286453547862      2.40602319508852
  H   1.93036102772400     -5.57444500055176     -0.17920969949287
  H   3.99258519153716     -5.49211228856534     -1.15600619801481
  H   5.15082649287840     -4.29292214223693      1.39044632135972
  H   5.97231742165385     -4.64368526108604     -0.12469337225424
  H   5.30895306518238     -5.96827668098982      0.84927265852181
