30
Coordinates from ORCA-job 24919optt
  C   1.02524783530728      0.51053387642623     -0.20447903675038
  C   2.46356193814153      0.11039665107256     -0.14349184530173
  N   3.44033028951080      0.99138068182091     -0.14296263421178
  C   4.66023058665923      0.33059862030883     -0.07686188051216
  C   5.95457764329958      1.06637865298421     -0.06803066884024
  C   4.41166084875268     -1.00254268723772     -0.03332691594918
  O   5.29067528380774     -2.06203150445426      0.05607227216684
  C   4.75709076246639     -3.25541387993396      0.06719964195450
  F   5.69489322590600     -4.17633931988386      0.15953338832034
  C   3.44637401137961     -3.58815416489294      0.00477334370720
  C   3.00871516861693     -5.02381159878923     -0.02182092913792
  C   2.63233945645021     -5.49173991130054     -1.44158497659463
  C   2.06267720152748     -6.83513601367169     -1.43773105429419
  C   1.59500734510903     -7.93675149444510     -1.39277826874395
  C   2.49735309388988     -2.49658641572302     -0.06991427124512
  N   1.18073289215659     -2.77668902240593     -0.13451942446458
  C   2.99655536631458     -1.21369568791193     -0.07884953437157
  H   0.96230964348141      1.59608815617291     -0.24767467082718
  H   0.47330816150064      0.17564059485295      0.67952791875051
  H   0.52728738484289      0.10688031230956     -1.09138853885301
  H   6.02251096763607      1.72401927224135      0.80013782036027
  H   6.04733322097215      1.68883528437942     -0.95954315934327
  H   6.79472998876652      0.37279791583695     -0.04245706889078
  H   2.15753344510296     -5.17434986954053      0.64765345659240
  H   3.80133580641052     -5.66444674895703      0.36043950545417
  H   3.52454457876716     -5.47170388982538     -2.07107439424620
  H   1.92048062677265     -4.79610939583078     -1.89288431870554
  H   1.18315700058587     -8.91718691940664     -1.36490007619464
  H   0.83814070346945     -3.71509097971323     -0.03398185165809
  H   0.51230552239611     -2.02577051448206     -0.11908182817009
