28
Coordinates from ORCA-job 24925optt
  C   1.18745803368897     -0.21219059331254      0.45853701536474
  C   2.57562646186853     -0.23449187776244     -0.14440290747305
  C   2.98054566300526     -1.75509764075202     -0.55616979174574
  O   4.32633865862066     -1.95299538010800     -0.00520004144236
  C   4.62462398691100     -0.58356460298173     -0.04525132925608
  O   3.60686521854078     -0.04856075309213      0.79118042244295
  C   5.52715476972807      0.64359097746386     -0.13026390585600
  O   6.66393983493659      0.91549625814456      0.03655665209767
  C   4.43100717317234      1.61069268132801     -0.78126987721209
  C   2.93063071115972      1.04538725989313     -1.09314707865620
  C   2.75744812243584      0.86584743086119     -2.60188196289288
  C   1.43492005063043      0.30929371307870     -3.08719523355578
  F   0.37310099342678      0.99192538933583     -2.66189993379523
  F   1.40734461056342      0.31263054540464     -4.42391741713647
  F   1.24090152016231     -0.96950566810327     -2.70383277813175
  C   2.13562459511902      2.25958715810418     -0.61450618002075
  O   1.65864067377677      3.08450606727589     -1.33772586944733
  H   1.11701880959983     -0.99499607316411      1.21307285975180
  H   0.44128682461844     -0.40650276969552     -0.31281984520064
  H   0.94815731682393      0.73367846048085      0.93885925232783
  H   3.01243031331481     -1.93451336599868     -1.62784994010615
  H   2.30998621484142     -2.45487641439655     -0.06509634970441
  H   4.42067810785622     -0.42928863918792     -1.11834191893213
  H   4.85784965913479      1.97340299083149     -1.71878199172956
  H   4.37519975197371      2.46881538589319     -0.10941048361669
  H   3.52414399450497      0.19843838446107     -3.00215475742472
  H   2.86689803918347      1.83419258175539     -3.09176255114457
  H   2.12917989040181      2.39209849424292      0.48267594249561
