29
Coordinates from ORCA-job 24921optt
  C   0.94970984834341     -0.02607496536867      0.14164529077419
  C   2.47020592392355     -0.04669886339565      0.16433785880096
  N   2.92393407308041      0.04763426921052      1.54906191912211
  C   3.07050179286684      1.07491300105839     -0.76924576754887
  O   3.13164331375867      2.29532840184598     -0.09153277011222
  C   4.42978912365780      0.54799255380573     -1.34954750273615
  C   5.66838446035295      0.96026499492329     -0.54929887434865
  N   5.85415828818973      2.41054136879473     -0.65918322010973
  C   4.18031798328182     -0.92644003946493     -1.31454490563471
  C   4.56133674317860     -2.13225005001832     -1.77658963787662
  O   3.77330922392305     -3.09426243671153     -1.27385423731514
  N   2.82396725108631     -2.52492356736118     -0.45111750860304
  C   3.07743602582975     -1.25536214315458     -0.48218291113691
  C   5.62082764970215     -2.58358837222756     -2.72707533396764
  F   6.42076109332275     -1.55480869993329     -3.02578440585413
  F   6.36671406055802     -3.55687638381168     -2.20995077766197
  F   5.10357202559556     -3.04029486043218     -3.86725710373639
  H   0.59655771749114      0.92164927449583      0.55169671301575
  H   0.56518105712518     -0.83898813491895      0.75521844835778
  H   0.56885945889316     -0.13237987665531     -0.87451610474102
  H   2.91539070190798      1.02630129164151      1.82239690201319
  H   3.86965477728688     -0.29682581089339      1.66181604163414
  H   2.38548484346917      1.16516119829802     -1.62097454928283
  H   4.01841998286961      2.68023606138836     -0.21795263224768
  H   4.56196995906323      0.90932083267959     -2.37274517857057
  H   6.52938010446146      0.38378690233688     -0.90171150426651
  H   5.52315440292558      0.72341003913542      0.50550916484836
  H   6.13602034487729      2.66831646821194     -1.59827852599014
  H   6.57435776897770      2.73791754652105     -0.02733888682548
