28
Coordinates from ORCA-job 24926optt
  C   1.13319527545395      0.85149327286755     -0.74577941482131
  C   2.64367726535906      0.94774867287694     -0.83227838910506
  O   3.10432228646803      1.79634790786084     -1.83702539167587
  S   3.25732481777307      1.56391436091740      0.76135234585745
  O   2.82611655223312      2.93700397627358      0.85682270420001
  O   2.92388033642943      0.62082405178657      1.78781962950611
  C   5.02055325322313      1.60805244174869      0.56317053044483
  C   5.65621030581379      2.83855340953065      0.44121333771501
  C   7.03748232738162      2.91622368190565      0.32996539240219
  C   7.74090543838978      4.24226326093503      0.19783277346361
  C   8.41888387417296      4.71766802034547      1.47709660420294
  O   7.68333452083209      4.63399591388330      2.60015136381992
  O   9.52083914930197      5.17169837574300      1.50378255385866
  C   7.77619545536910      1.73127209768993      0.35424321318189
  C   7.15711160567847      0.49917469974533      0.45965444987912
  C   5.77804269470745      0.44919227334050      0.55292454256880
  F   5.18165479385073     -0.74031674574039      0.61698182363619
  H   0.75620246396777      0.46385167918442     -1.69118741441843
  H   0.70519083550639      1.84015661782561     -0.57011814777412
  H   0.83128607728618      0.18968486433497      0.06430732458030
  H   3.11147722023344     -0.02733989760760     -0.97461727701198
  H   2.68707103525776      2.66041938751243     -1.72056377358972
  H   5.03934974660661      3.73016973564639      0.43026745343790
  H   7.02698919167215      5.01711336466165     -0.09187188787496
  H   8.51531438348025      4.20152195698562     -0.56530169580433
  H   6.84536468418403      4.18224748697038      2.43605757436384
  H   8.85616521465706      1.77794491931208      0.27810608045668
  H   7.71885919471046     -0.42487978653604      0.46699369450031
