25
Coordinates from ORCA-job 24929optt
  C   0.95426226649725      0.43407617716958     -0.12352474763244
  C   2.41585953697047      0.21756755390535     -0.33189226717619
  C   3.44860848202001      1.03055229323219      0.06893731651185
  N   3.43178963962550      2.23661337334546      0.78095244813569
  C   4.11318286041673      3.36959095659433      0.41678472501325
  C   4.49846754064350      3.67239165354250     -0.83769539525620
  F   4.18670199671672      2.85311341482280     -1.86998225862818
  C   5.24317984186919      4.85643309431728     -1.19215553317521
  N   5.61383741075884      4.94387909847811     -2.48465239043799
  N   5.57360819299177      5.82400716618701     -0.39096921572528
  C   5.22138612695812      5.86250302277191      0.92523173335533
  N   5.40199597264065      6.82027169084407      1.73198428839339
  S   4.46701015751897      4.44097818851540      1.74505579980593
  N   4.60153237451582      0.44353390822484     -0.33072269609995
  N   4.38958127792404     -0.68862268119620     -0.99910083953086
  C   3.07705059499901     -0.84348839697228     -0.98971247313770
  H   0.74778060120599      1.48536684634239      0.07946639691672
  H   0.57345740452573     -0.15117672772466      0.71550940458805
  H   0.38936287991583      0.14531076789908     -1.00959771992067
  H   3.09908705082551      2.20251726444276      1.73280196934910
  H   5.34136314562714      4.24609798840158     -3.15232407626600
  H   6.08314356038600      5.78032668771981     -2.78505064465012
  H   5.86866789291431      7.58420800554932      1.24520409440380
  H   5.53637108525087      0.80335782109798     -0.23041856691926
  H   2.63571210628187     -1.70440916751074     -1.46712935191703
