24
Coordinates from ORCA-job 2493optt
  Br  1.15878864233151      0.46345052407386      0.44272315677161
  C   3.00447071082054      0.26932955341384      0.12314515288609
  C   3.87642280325378      1.25556782957796      0.34332543689975
  C   3.74016277220614      2.68129472153800      0.82877475924997
  C   5.05795885449444      2.85304918779991      1.58733254778778
  C   5.89642630428620      2.44982447753332      0.35410624765630
  C   5.29055502781585      3.41946853126704     -0.69951492797795
  O   3.92072689574622      3.53415650597512     -0.31093070253865
  C   5.96957523086911      4.76531688600258     -0.73127051899465
  C   5.20486549454963      6.01167013167797     -0.77091400802425
  O   5.85755899293894      5.58259471206533      0.41584813743174
  C   5.28921498524055      1.10286863563770      0.04037932568522
  N   5.93873700844920      0.09665279588174     -0.41967680322639
  C   5.30518590108251     -1.10402388310863     -0.68233510635580
  O   5.85202313550660     -2.09518600519572     -1.05836387596602
  S   3.49064145014813     -1.27258892297377     -0.47057436385991
  H   2.81009493500494      2.93814878678813      1.32391583817686
  H   5.16998021637485      2.15856939174523      2.41805482922370
  H   5.22471916278599      3.87984976130206      1.89990787005000
  H   6.97974078839088      2.45919827850661      0.41699252239951
  H   5.34942689059705      2.99048438709099     -1.70463949676652
  H   6.96107467970884      4.74911716803598     -1.17685575879024
  H   4.12417901657335      5.95495591023018     -0.73724452393742
  H   5.64047010082468      6.88523063513454     -1.24118573778071
