28
Coordinates from ORCA-job 24936optt
  C   1.42904462244034     -0.36027806465799      0.71320825682491
  C   2.80393329107510      0.00204318009243      0.15618131351945
  C   3.27674807923807      1.33741910359890      0.74353901009923
  C   3.88952436972851      0.90203426778108      2.06521315245454
  O   4.12028312316443      1.58441136682148      3.01873429630259
  C   4.15168058654879     -0.59347310382089      1.95673767200690
  O   3.75599402888396     -0.95729996052134      0.65314312017998
  C   2.91364335668704     -0.09049794585605     -1.39304642442909
  C   4.40188401716537     -0.22005509091500     -1.80673726850337
  O   4.71494957288208      0.26276368805123     -3.07730447849272
  O   2.10303488129785     -1.22725777702917     -1.74576698434159
  C   2.26244545171046     -1.96084684705948     -2.84811757249615
  O   3.07187602743839     -1.82020310458234     -3.71506506108834
  C   2.26094244041723      1.11875242201782     -2.09864649063984
  F   1.06698907404100      1.42947005600037     -1.57194889947593
  F   3.02077896941019      2.20655299825470     -2.00861633364942
  F   2.04497210067071      0.85729538762885     -3.38495465928583
  H   1.45406206155394     -0.24983722313955      1.79939927504022
  H   1.18748825250712     -1.39291926532276      0.47779455831945
  H   0.64860629215422      0.29099229461811      0.32969231527540
  H   2.48232767950987      2.06545845571719      0.89206009195465
  H   4.06571710781251      1.80483679993466      0.15154418160783
  H   3.57871009564301     -1.12072009314369      2.72643571465563
  H   5.21018227488861     -0.81568866120620      2.09466269991912
  H   4.68175882918039     -1.26587227296965     -1.66677003839755
  H   4.98993547854921      0.36412070071750     -1.10213794108817
  H   4.32307887974744     -0.34092619589736     -3.72204991132462
  H   1.51040905565409     -2.75727511511286     -2.84018359494728
