30
Coordinates from ORCA-job 24934optt
  C   0.89156729537065      0.03311967933609     -0.16506480374106
  C   2.39482559592653     -0.10224554933543      0.03419259369286
  N   3.12663791906125      0.91670728444045     -0.73199184199176
  C   4.30696678257223      0.36473616596294     -1.38815424494894
  C   4.40814585436434      0.86099155874195     -2.85734540064883
  N   3.24109391916233      0.56659910165428     -3.66860532838298
  C   4.66357394669621      2.30546955789905     -2.83317683122886
  C   4.87235755206090      3.48213589745147     -2.75828991680049
  C   4.05392477111429     -1.11249249469856     -1.28359065173608
  C   2.99459633824661     -1.37696076914050     -0.50797737655174
  C   2.59804527561577     -2.71251011306206     -0.21047389930035
  F   1.56646052464303     -2.85681468739284      0.64761008114747
  C   3.16848483057929     -3.84255094091878     -0.67939025902675
  N   2.67650502336718     -5.10111576946115     -0.34358139467700
  C   4.28658378299443     -3.82412753649048     -1.63347592773846
  N   4.80819810884282     -4.83657980704183     -2.19460071363865
  S   5.04122973546169     -2.28025633242613     -2.06720270777416
  H   0.57109600860860      1.03014771062618      0.13848497039292
  H   0.34611603711062     -0.70136709672122      0.42628155856035
  H   0.64453906527504     -0.09923128875170     -1.21921862207952
  H   2.61443834526905     -0.03670849359688      1.10914741811308
  H   3.32361554721951      1.75532818604064     -0.20622546591818
  H   5.24666908393250      0.62515781272686     -0.88233866906593
  H   5.27371139284300      0.37414129771626     -3.31823505825722
  H   2.41596357700990      0.90884486443372     -3.18462564882894
  H   3.14059560473249     -0.43688479987786     -3.77895732787422
  H   5.05699422087718      4.52900156720612     -2.72076299275070
  H   1.97303150492609     -5.07405724859814      0.38040099081780
  H   3.39915054673155     -5.77355900818251     -0.12111959246736
  H   4.31588180938487     -5.69591874853993     -1.96271293729626
