28
Coordinates from ORCA-job 24937optt
  C   1.22987270733395      0.87139374924158     -0.50903818503727
  C   2.35993206073222      0.00131692082083      0.01333871842506
  C   3.54327859795135     -0.01470756461503     -0.94973017383977
  O   4.55126717260287     -0.91483227488390     -0.54946287804766
  N   2.79321966526424      0.44495267914740      1.33728899847278
  N   2.68293665230304      1.72480045317126      1.71985268908815
  N   3.12696694622851      1.87026918790124      2.91254223491397
  C   3.55727262272628      0.64679913191833      3.35167751492399
  C   3.35358782201036     -0.29185721090907      2.33635666284582
  C   3.70555321843264     -1.64075878682396      2.46735874436377
  C   4.26643578860309     -2.00696715047220      3.66795381262679
  C   4.46195055149891     -1.08368224017721      4.71651309384529
  O   5.06891060552818     -1.45746588085192      5.89059013518785
  C   4.56313975925093     -2.53888218575952      6.55406059994268
  N   5.12620862265627     -3.08219292608129      7.52697313335217
  C   4.11057882703899      0.23773172665310      4.56985688897331
  F   4.29651537692960      1.09568464553214      5.55988784107906
  H   0.86287615887692      0.45617101773985     -1.44719448489882
  H   1.57460916333975      1.88946942448368     -0.68303103228568
  H   0.40778417075784      0.91058582812341      0.20329645017151
  H   2.01689988714389     -1.02756337018112      0.14645613518487
  H   3.93048058489445      1.00379008420713     -1.06049574853384
  H   3.19118527711343     -0.35394693144446     -1.92461452001759
  H   5.05669396141751     -0.53066084947051      0.17402130662788
  H   3.57742655147240     -2.34923942554797      1.66167235493188
  H   4.59213272886843     -3.02716351582726      3.82810450069691
  H   3.60525941492140     -2.88815456653436      6.17075135221414
  H   6.01202510410251     -2.62488996936017      7.74601385479271
