33
Coordinates from ORCA-job 24932optt
  C   1.05572695633270      0.90151195216288     -1.47013304764229
  C   2.48405874514638      1.38649857543396     -1.52986214632453
  O   3.29723594286730      0.38283106392569     -0.90567588482365
  C   4.59663413392432      0.27419882279335     -1.26274399343799
  C   5.44375423106346      1.35765212361402     -1.49638321318153
  F   4.95086619175921      2.59611567602963     -1.38631828511685
  N   6.69988826380740      1.25967841025010     -1.80051685559093
  C   7.24994604739490      0.04487167086072     -1.89214374619081
  C   8.73151014991994      0.05413861182376     -2.14516937379506
  N   9.58651774350374     -0.65835565667641     -1.51605797644315
  N   9.12008421759992      0.92196505259863     -3.11455694790621
  C   10.52598476588253      1.18279176947297     -3.32617499691542
  C   6.50775296406361     -1.12341648911250     -1.72385000840729
  C   7.07848423610601     -2.49860057962482     -2.00738355999211
  O   6.38555654956729     -3.16436069440692     -3.04882738064135
  C   5.15753453254112     -0.99521090496276     -1.36653403077924
  C   4.27536635277811     -2.17832956589254     -1.07969493249702
  H   0.39047038982384      1.64779688249238     -1.90451414401362
  H   0.75751911805179      0.73339284663529     -0.43546982587548
  H   0.94242146083709     -0.03201260604220     -2.02059488583655
  H   2.60303413492957      2.33258034350433     -1.00285923941117
  H   2.81692954156297      1.52260194366438     -2.56179598618315
  H   9.12942051766793     -1.23957165701934     -0.82096295611382
  H   8.45336006369771      1.63823652441731     -3.35035151536425
  H   11.03365984296931      0.25987818674680     -3.60323275019110
  H   11.00350693945178      1.56426155269117     -2.41982357118013
  H   10.63306468100292      1.90656458378211     -4.13087435297111
  H   7.08874047962452     -3.10624641558789     -1.09509660127174
  H   8.10408545918537     -2.41270245245649     -2.35290613198730
  H   5.51013410225479     -3.42007310381900     -2.74820129251348
  H   3.66660928927137     -2.43238952580832     -1.95168154216602
  H   3.58342063125278     -1.94285532502801     -0.27396515310344
  H   4.85772132415816     -3.05144161646228     -0.78664367213214
