32
Coordinates from ORCA-job 24946optt
  C   1.10189882350789      0.64266713241622      0.31822701227015
  C   2.58199010893968      0.26890800665721      0.21854487264102
  C   2.93453114996718     -0.91690059573539      1.08532654428212
  C   3.45653031672527     -0.65250871713804      2.34667137286263
  C   3.79177900045912     -1.70793541039275      3.16450779092100
  F   4.31080508320858     -1.44424352554373      4.37574822949818
  C   3.64844985042190     -3.02720571324701      2.78820668120386
  C   4.16346649847879     -4.13145894100758      3.67561674259819
  C   3.10779155356950     -5.00703687405833      4.19280289434897
  N   2.27949975106427     -5.71423594255749      4.54943780930008
  C   3.09084023227189     -3.30014794699091      1.52771040369430
  N   2.98369752939334     -4.62723482038838      1.14490772198438
  C   2.72744002887911     -2.23929069763028      0.66992273769476
  C   2.15068607495129     -2.54348017206082     -0.70449299887094
  C   3.14830972095452     -3.15855705768210     -1.68308003180824
  C   0.87549619976841     -3.34678108248070     -0.55826009338550
  O   0.71446725071606     -4.45803717488010     -0.98505702724883
  H   0.87178374487292      1.50409077296525     -0.30904702631685
  H   0.84438644839706      0.88877570104248      1.34889049696959
  H   0.46001538546791     -0.18470487207232      0.00999156291502
  H   3.18568893407156      1.11883761297789      0.53912158069207
  H   2.85533199083866      0.07986592284983     -0.82126639467169
  H   3.61750396582742      0.36014224155751      2.69108854339652
  H   4.70287115808463     -3.71073976258106      4.52212934352736
  H   4.85738845267644     -4.76279206629483      3.11290509893385
  H   2.78712001154289     -5.28978789295418      1.88076743756349
  H   2.44791860283700     -4.83423637940410      0.31679544328905
  H   1.79835131699221     -1.59854816505080     -1.12458669028139
  H   3.59903134289934     -4.07098081799145     -1.29717759516598
  H   3.95120828130633     -2.44597103901957     -1.87192528693728
  H   2.65837829459045     -3.39934050446760     -2.62617846850361
  H   0.06634289631829     -2.83213121883682     -0.00424870739631
