32
Coordinates from ORCA-job 24947optt
  C   1.12155091546343     -0.05156994016107     -0.20395931035911
  C   2.61722053408245      0.08072962520536      0.01931747896951
  C   3.08894618321179     -1.07125824639706      0.91791592838931
  N   4.53570113554976     -1.29813494242346      0.85914707498074
  C   5.25013064289950     -0.32612366409815      0.04832314576964
  C   5.32586693232227      1.05151536445213      0.74601861113227
  N   4.25540499191813      1.98178899476119      0.43999831864298
  C   2.91683050937739      1.46793484400154      0.64379398877988
  C   4.61510924406142     -0.18278509210035     -1.34641098193832
  O   3.21306943845773      0.00243466666567     -1.27847186470195
  C   4.94824286661755     -1.36913491056619     -2.22211705098184
  N   6.06231763526451     -1.28258956291012     -2.93392372225041
  C   6.40563327107132     -2.30102839278430     -3.71728482637262
  C   5.61976401667050     -3.43523053554405     -3.80493904806557
  N   4.50318099310602     -3.55027564858819     -3.08809423498578
  C   4.19277255226889     -2.54673729955469     -2.32030377594053
  F   3.09026101747462     -2.69943976199006     -1.59052236063888
  H   0.59231840814181      0.02791887636230      0.74775255182202
  H   0.89244358320014     -1.01584355614310     -0.65675820770483
  H   0.76967950828187      0.73927204367424     -0.86642748666101
  H   2.56806964725735     -1.98038855120016      0.61906115694064
  H   2.78242376844518     -0.84389689868144      1.94392040287330
  H   4.72931140697669     -2.23580471127776      0.53400992876453
  H   6.26940963900920     -0.69431759190317     -0.08265664360232
  H   6.26508810729779      1.53409479785428      0.47228201002433
  H   5.34629814253298      0.87170466931540      1.82399763187248
  H   4.34588501130324      2.32283384434028     -0.50825201252391
  H   2.22148260246303      2.19464246596881      0.22045835911072
  H   2.71392882000753      1.41210825074774      1.71818997327888
  H   5.06310369668634      0.67751693214267     -1.85593200969779
  H   7.32110532876702     -2.20422473509926     -4.28708704887988
  H   5.88344944981245     -4.26471133406899     -4.44904597604645
