29
Coordinates from ORCA-job 24949optt
  C   3.26152031205774     -0.29129068412245     -1.24640856922298
  C   2.45363607945962      0.10073934131586     -0.00455654742904
  C   2.59289911919696     -0.94349618745821      1.10365197721809
  O   3.94151461598769     -1.14578849860385      1.51654865959254
  C   2.80503732098396      1.48765278382827      0.46256112240494
  C   2.22529646190074      2.61490049804525     -0.01169139697050
  F   1.24661451791956      2.49992985849886     -0.94264572360676
  C   2.59413291375050      3.90697289379106      0.41545084196046
  C   2.20783206724438      5.18619565355627      0.12183052330278
  O   1.27308403107452      5.65574260096112     -0.75867990946218
  C   2.98718146898321      6.09291095744701      0.90712425997707
  N   2.77708248033429      7.45749605349500      0.85160247105432
  C   3.86819129188189      5.38577595294416      1.70468671700154
  C   3.65534610980415      4.01043029023401      1.42525671322083
  C   4.19449502516523      2.84866732448322      1.86177537091507
  F   5.15620148973938      2.77912387517316      2.77783186621860
  N   3.80711165229107      1.63960085263396      1.40683191135004
  H   3.00822024200454     -1.30283708506449     -1.57293741232078
  H   4.33432003229627     -0.24263618895917     -1.04830616410504
  H   3.05045628779985      0.39545212727827     -2.06486857479423
  H   1.39649451067950      0.11907604857773     -0.27955887294298
  H   2.15901788371820     -1.88871203350111      0.76593782650266
  H   2.05572367845263     -0.62293798155021      1.99628649894825
  H   4.42149904614049     -1.59902912460904      0.81679672992611
  H   0.84718849109999      4.91138930678806     -1.19508062766999
  H   2.30569393016133      7.77178494008537      0.01684443390337
  H   3.56306184050294      8.03422124515990      1.10342176877668
  H   4.57687977562492      5.79309150391178      2.40647894069671
  H   4.26026732374440      0.80557367566018      1.76381516555442
