27
Coordinates from ORCA-job 24956optt
  C   0.98943837331368      0.34140232823414     -0.20762409198888
  C   2.45976554682135      0.04468748270677      0.01795367571299
  C   3.18143454724758     -0.18718182330824     -1.30874086115845
  C   3.15079852223335      1.15549943111554      0.83102766929477
  N   4.18746775998381      0.42533056596182      1.53353738730452
  C   3.82658163966573     -0.88574457110448      1.71934937267476
  O   4.36323654713386     -1.70355946658513      2.42218367132555
  N   2.69762418108402     -1.10297165817310      0.92422100024243
  C   2.30105994218760     -2.42005942056062      0.67847447016702
  C   3.19666874650487     -3.30157995282174      0.19541603543224
  F   4.39138602934161     -2.89492767314277     -0.19275200368812
  C   2.96204992484001     -4.73062620679197      0.08122211171082
  F   4.01037951983063     -5.42662938692256     -0.33368407427883
  N   1.89414025722802     -5.33888028990979      0.33817272784610
  S   0.53704893163563     -4.55477992931313      0.85598141053194
  C   0.95040076811473     -2.84641633300881      1.08926512588987
  N   0.12327060930447     -2.02636469317716      1.58758218206226
  H   0.90135096274324      1.26301851491931     -0.78645458300715
  H   0.46414771030544      0.44700685390897      0.73839352314182
  H   0.51179590489805     -0.46076698985173     -0.77175183774294
  H   3.00961193619839      0.65515648849629     -1.98033593471066
  H   2.80044733171370     -1.08837714824475     -1.79299067076361
  H   4.25399839274647     -0.30415662480200     -1.15194152206713
  H   2.43858533074359      1.61767074212833      1.52135487420391
  H   3.56719138895764      1.91907660175494      0.17455455840080
  H   4.75477575420172      0.84760446256253      2.24975534635095
  H   -0.75965655897921     -2.46343130407066      1.84983043711303
