28
Coordinates from ORCA-job 24950optt
  C   1.38058069493935      0.28796937153911     -2.89994638723280
  C   2.77141497507607     -0.11731250989138     -2.50802697871748
  O   3.45833462554153     -0.83326692924153     -3.18600363500161
  C   3.30131620972471      0.42879475845988     -1.15452364027552
  C   2.78845176875282      1.86392482412760     -1.00706692262416
  O   2.01857601249501      2.21388353868781     -0.16292207652924
  C   2.66203191777608     -0.38739060163008     -0.00218663707230
  O   1.64379788605007     -0.99842798458470     -0.10882851423400
  C   4.81379709014978      0.37281309319419     -1.03598365755678
  C   5.59913913199637      1.51728698611403     -1.01121584849853
  C   6.95747879997065      1.35601534070557     -0.80688202202714
  F   7.72870436954083      2.44645584153868     -0.79418117938920
  N   7.56019228796735      0.21967545663594     -0.61490678327854
  C   6.82666063863476     -0.89402506462461     -0.64225040428174
  C   7.54262222110248     -2.19124568751822     -0.40996174142461
  C   5.44473652825232     -0.86864358838512     -0.86722911028974
  N   4.67934043901967     -2.04016526101188     -0.83627469680833
  H   1.05778103209908     -0.30387158679653     -3.75193744658684
  H   1.37648167112132      1.34648145541890     -3.17601550125681
  H   0.70357456742241      0.16194849909740     -2.05491113455212
  H   3.15804367445740      2.57446829880289     -1.76923940031746
  H   3.21563497491573     -0.31593965392053      0.94898351524932
  H   5.20835060584976      2.51735681637554     -1.12366079905250
  H   8.60416296575914     -1.99745374883910     -0.28627251250032
  H   7.40202735174591     -2.87400060189741     -1.25152417151029
  H   7.17382641623229     -2.69126857347446      0.48972122599427
  H   5.20904763696165     -2.87276496788354     -0.63111718837202
  H   4.11789350644534     -2.17129752099846     -1.66863635185349
