28
Coordinates from ORCA-job 24968optt
  C   3.55369772550650      0.46309832786184     -2.04978487334214
  C   3.23722909255008      0.18292001931948     -0.62780173196970
  C   2.87961667611237      0.97266006706019      0.41871334975941
  C   2.76650968224643      0.04184301404421      1.49225717321806
  N   3.03426408810711     -1.17164288093882      1.11485724170245
  O   3.33396482333760     -1.08742424287880     -0.22302907544168
  C   2.65813268603303      2.45629759467408      0.42577782077668
  C   2.40354167251421      2.98855731035867      1.84678521414700
  O   1.25945660822704      2.42448109662104      2.44344102847184
  C   3.80193895836413      3.25214921537160     -0.16851784912405
  C   5.08014236078081      2.80270767191364     -0.24130665144003
  C   6.16339968376757      3.59573041455475     -0.79673827375547
  O   7.32431600462413      3.24884684220343     -0.89827628404738
  N   5.76174791931876      4.85270056885606     -1.24506966869569
  C   4.49301162383411      5.34055651117284     -1.17097346368739
  C   3.52644637405311      4.57102584813548     -0.63987206951984
  F   2.26887316198936      5.04429045546611     -0.54975121011352
  H   3.14480357030571      1.42765029557135     -2.34542065707784
  H   3.13895813461689     -0.31515984798438     -2.68930294537434
  H   4.63498470828830      0.49243979909055     -2.20168974485212
  H   2.48130571832594      0.22892153942112      2.51546345619006
  H   1.76440583741538      2.68996621860612     -0.16461141262431
  H   2.33831181874179      4.07969725413542      1.81856190728790
  H   3.24953388486558      2.71797806938661      2.48133634255754
  H   0.47186820461161      2.74667258818261      1.99472087347437
  H   5.34594007819393      1.81209688997807      0.10065996207698
  H   6.49959325149987      5.41739397143162     -1.64073538020952
  H   4.30600565176855      6.33654538838509     -1.54469307838726
