24
Coordinates from ORCA-job 2496optt
  Br  1.76739280552214      0.51165418171479      1.16051705981725
  C   3.54084884977732      0.40971783097620      0.58203045288595
  C   4.32713946795851      1.48983926966276      0.41135753334373
  C   4.13132998884260      2.97483025124931      0.63272106736641
  C   4.95636732906156      3.54988429752433     -0.52013911925946
  C   6.23188112429002      2.78268101053139     -0.09753787514972
  C   6.29581260449297      3.25826453209470      1.37820857778025
  O   4.93057324234985      3.30489275095080      1.78684293861534
  C   6.90173129083729      4.59657125508883      1.48816176504297
  N   7.37920958666919      5.63597983410652      1.54403521556673
  C   5.68873389005471      1.37752134306980     -0.02756239932280
  C   6.20989558284265      0.15224792304772     -0.25122703455342
  N   5.39353047683649     -0.94141302692659     -0.09551696440124
  C   4.05807152422985     -0.93848761288154      0.29523585166436
  O   3.43142410262707     -1.96922303930035      0.37525674977571
  C   7.60795499487279     -0.11263167325365     -0.66397024288220
  O   8.44242779534886      0.74166258122097     -0.77550249139523
  H   3.11856010765688      3.32585794153775      0.79347827048142
  H   5.06391792689616      4.63169491399705     -0.45575611578088
  H   4.59345981606775      3.25403591721661     -1.50177045908632
  H   7.14593147195484      2.93072897057401     -0.65890198593183
  H   6.85214815118702      2.56889124554391      2.01419266213590
  H   5.75589780524794     -1.86735938350731     -0.28638365517714
  H   7.84476006437550     -1.17584131423803     -0.86476980153577
