22
Coordinates from ORCA-job 2497optt
  Br  1.66467927308410      0.09069369150647     -1.98401621294939
  C   3.16005631083303      0.07751124955721     -0.86163176110404
  C   4.01925484146279      1.13598246276580     -0.74066290964456
  C   4.09544801754072      2.53692823828749     -1.29706485612390
  C   3.63439095179821      3.50394797749485     -0.18145405208723
  C   4.82093224973954      3.41596378050406      0.80967944469564
  C   5.75824543283446      2.42454699744836      0.05887517087205
  O   5.51366915998093      2.75285922685833     -1.30678334511326
  C   7.17111434844392      2.50041190520283      0.39934633521685
  N   8.27298013139360      2.57891962927915      0.69715483218532
  C   5.10554547956592      1.05263330508015      0.15640458945883
  N   5.42681672501460      0.05446542740951      0.94306264447740
  C   4.59305848731446     -0.96527656489172      0.77274651355748
  C   3.49208047689599     -1.02670698970042     -0.07066325148001
  N   2.93911261584805     -2.27766399684228      0.09442551638873
  N   3.60415416630262     -2.91655874724886      0.92778114376120
  O   4.67497795210612     -2.13513805609267      1.40148429429027
  H   3.67695786819285      2.69389187273040     -2.28538642026839
  H   2.68438899527274      3.20114721591426      0.25438061070308
  H   3.53445363392755      4.50932071068915     -0.58390340150709
  H   4.55414525183764      3.04397627345305      1.79620208813257
  H   5.32953763061013      4.37114439059487      0.91602302653845
