29
Coordinates from ORCA-job 24977optt
  C   0.92803331394538      0.10083491858241      0.36919475828973
  C   2.44888682386624      0.04848058109332      0.33336153337551
  C   3.03138091221645      1.00254692830465     -0.71426904670217
  N   2.61718731096262      2.40658545189703     -0.60697694051611
  C   2.79291710181356      2.98888047716062      0.71711680108235
  C   4.52897060224738      0.96951996056759     -0.70744730577239
  C   5.48318904372096      0.15094269544501     -0.19214431971122
  O   5.36824730392193     -0.98113718910402      0.54050226710194
  C   6.50931235660537     -1.64953506161386      0.97334601385620
  O   6.34488316580983     -2.63866774245354      1.61015858918887
  N   7.76868916996652     -1.13932454916270      0.65296692910844
  C   7.86030450076635     -0.08264552387907     -0.04260793024491
  F   9.08017039700671      0.37979349941105     -0.31947617814435
  C   6.77038328848260      0.65293862054443     -0.54130885350084
  C   6.55762007896007      1.80660133325042     -1.27606124231635
  O   7.39324047191345      2.69144891733676     -1.82687924360814
  N   5.23486990823694      1.97805061400926     -1.37641917514478
  H   0.52888170964585     -0.63411623032672      1.06703369084329
  H   0.50469905454108     -0.10986973936845     -0.61571381370336
  H   0.56870315600492      1.08254702444679      0.68422023942259
  H   2.78592397014612     -0.96256796836097      0.09860074344790
  H   2.86445715924513      0.28192513670237      1.31627205166777
  H   2.67734478346887      0.67021036445622     -1.69766955618403
  H   1.65559593512915      2.49974122668922     -0.90845290477580
  H   3.84632109953325      2.92934640100031      0.99701962734576
  H   2.20985255519555      2.49539948470885      1.50294082647082
  H   2.51076223005097      4.04034504677836      0.68627602373477
  H   8.30441778912426      2.42233987763604     -1.65832592708791
  H   4.76375480747238      2.77938544424859     -1.77225765752357
