27
Coordinates from ORCA-job 24984optt
  C   2.93069021236814     -1.41901679727236      0.82242374611848
  C   2.09563236561840     -0.14581923523273      0.87280035306580
  N   2.93737173715092      0.99905628864090      1.18059492096660
  C   2.28419091707349      2.28383395653719      1.17251719978866
  C   1.44871412439058      2.57093964241523      2.44537204682381
  O   1.94420006117450      1.85802495127683      3.55360950943263
  C   1.66256013107144      4.06086107758779      2.63441902155371
  N   0.92045214488668      4.82304873301516      3.42612046533343
  C   1.29089888227356      6.09229060716651      3.53385351956309
  C   2.39534075951644      6.62042516264586      2.86438055107595
  F   2.68412883430452      7.91165218240146      3.04125040437246
  C   3.16665630695735      5.84474252191931      2.02957436847796
  C   2.75863232092593      4.52359305179116      1.91998851381241
  C   3.32047160434386      3.40978472189966      1.12608360143661
  O   4.37655054127914      3.35205300965796      0.55829512588324
  C   1.34248999558515      0.03678730159545     -0.39112420888218
  N   0.76360824143813      0.22602782395667     -1.36196465744400
  H   3.43012302055118     -1.55514834701420      1.77998336575809
  H   3.68323748626912     -1.34373037475119      0.03676693018924
  H   2.30314318339856     -2.28358993464064      0.61557098777557
  H   1.34610881754089     -0.23314675158986      1.66513138325455
  H   3.76377975949107      1.03358823318136      0.58937137233742
  H   1.63830695717669      2.43549512034774      0.29358468344675
  H   0.38898982242408      2.34151978474639      2.31542936729331
  H   2.67786837064376      1.31052447487174      3.23463757337330
  H   0.70042991045774      6.74242345913613      4.16975180187596
  H   4.01842349168864      6.24577933571041      1.49557805331709
