28
Coordinates from ORCA-job 24983optt
  C   0.93728874783910     -0.00918927000582      0.13145642877596
  C   2.43458577009019     -0.04860232985333      0.10876005932849
  C   3.17137404913944     -1.18177510558225      0.13514445988247
  F   2.63169616083629     -2.39304728079040      0.19124524685271
  N   4.52510249240817     -1.20876932915347      0.11284884960841
  C   5.36002392193693     -0.08393243064523      0.05693481151754
  O   6.57293966097315     -0.23168173056595      0.03161211175175
  C   4.60883029743799      1.13442720023493      0.03948835455366
  C   3.23482297100039      1.12448136075576      0.06681473894963
  C   2.79638873809728      2.50898585920699      0.06243169991708
  N   1.68033932103456      3.19932650731852      0.06091217600565
  C   2.09780206289961      4.50092933452981      0.03791951832777
  C   3.47399418733680      4.58739186211419      0.02493574549552
  N   3.90362117666045      3.29673226878970      0.04683317747524
  C   5.15567598196203      2.54694160676921     -0.00219317394144
  C   5.96572302110821      2.90659617243102     -1.26529477177492
  N   7.31786494676967      2.40115228256834     -1.30412382458996
  H   0.52253251117015     -1.01060948770797      0.22100646446306
  H   0.55380217609768      0.45331722702648     -0.77859734692836
  H   0.58644415010492      0.59822553648143      0.96601929372408
  H   4.99224879314245     -2.10621388675374      0.13068888933027
  H   1.39515719286419      5.31767896576317      0.03417198176170
  H   4.13778452346792      5.43407435284067      0.01438628456884
  H   5.76222569062926      2.76005420934076      0.88286833427407
  H   5.99375520964356      3.99646215907023     -1.33834900277226
  H   5.40886155767789      2.54578784143984     -2.13362104835834
  H   7.34342215286780      1.40834338272558     -1.09112888796488
  H   7.89869253480385      2.86591272165153     -0.61717057023375
