34
Coordinates from ORCA-job 24991optt
  C   0.86266833394688     -0.10865757505978     -0.38107443524972
  C   2.33620547473192     -0.00364191131944     -0.14527442140069
  C   3.19586934217768     -1.05204554351686     -0.01435244496437
  S   2.81547004271340     -2.73583752759106     -0.07030529630829
  C   4.36228628448429     -3.42365183257742      0.20579143301969
  F   4.31502321264153     -4.75721559921551      0.22966893108332
  C   5.53524864779673     -2.78309765872464      0.37499247342950
  C   5.63625139484376     -1.36186676227308      0.34015383050903
  C   4.56415968714583     -0.55254149055796      0.15383262967682
  C   4.45900747508292      0.87658023844582      0.10645553457613
  C   3.14512607275938      1.20922384330610     -0.06437910134570
  C   2.62435371328264      2.62209877619340     -0.11694880753978
  N   1.80818902658301      2.93123266595299     -1.29330929972505
  C   1.84278409573353      3.00580661610876      1.14280913456137
  C   2.61969010339567      2.78731109786856      2.43269288208370
  C   1.85484190986645      3.26331488532389      3.65652713457055
  N   2.64173690965376      3.03509042530657      4.86549239017410
  H   0.48958643835142     -1.08792923513817     -0.07511256541137
  H   0.61461816179097      0.01901445961367     -1.43869647327046
  H   0.30262724102531      0.63957943534838      0.17953006201548
  H   6.41277857144615     -3.39464111164261      0.53460709370179
  H   6.61705583561082     -0.92004613304907      0.47040527208081
  H   5.28376661787139      1.56537199254678      0.21554202624233
  H   3.50140514207940      3.27531274685977     -0.16051682153239
  H   0.92339246893106      2.43791437804914     -1.25299743515748
  H   2.27729746965660      2.62957145537523     -2.13987043539946
  H   0.90724618740928      2.43789555958210      1.17804641757347
  H   1.56372492096123      4.05805503463817      1.04265030960383
  H   3.57834221128625      3.31231014563093      2.39096036546323
  H   2.85404549585086      1.72385419685756      2.54576349076134
  H   0.87171530777971      2.77224971677437      3.67691897507403
  H   1.67080342998416      4.33731235901826      3.57350548676301
  H   2.80161381817581      2.04350673710213      5.00118587224610
  H   2.15706895495016      3.37356561476295      5.68730579209507
