28
Coordinates from ORCA-job 24990optt
  C   0.97005331654454     -0.32675225402898      0.05570076476909
  C   2.46622100749762     -0.15940434674894      0.02716419006043
  C   3.22398034664286     -1.26873979515010      0.02352874280697
  N   4.59782358066743     -1.26200959272002      0.00680348009838
  C   5.36145497947579     -0.10898496439778      0.00889991858640
  N   6.63689500160208     -0.08551311171577     -0.00165697664438
  C   7.32600542367209     -1.35645325436034     -0.01511863140999
  C   8.77918920164151     -1.18578930427637     -0.02738794292645
  C   9.97000611456970     -1.07204348150704     -0.03704428661392
  C   4.57468563442254      1.13766258091951      0.02650858294057
  C   3.16042976938950      1.12965431850523      0.02265490508268
  C   2.52255926376069      2.38630595742287      0.02589507887389
  N   1.14772863678570      2.60074128529965      0.06524146486765
  C   3.36026351315767      3.50177639609582      0.05870363527948
  F   2.75383969819916      4.70118061005342      0.07293562785135
  N   4.65903211359260      3.51672396977385      0.07424268212589
  C   5.27022230430143      2.33847891372460      0.05397429112784
  H   0.72441438851514     -1.38125820795204      0.17582299666800
  H   0.50121559129446     -0.00117636852069     -0.87701135611575
  H   0.51300924359368      0.21885096404484      0.88037428577570
  H   2.77817287594706     -2.25428827773846      0.03792843452083
  H   5.07347495714466     -2.14799814182174      0.00716411975087
  H   7.05132696947052     -1.95347293415309     -0.89864185610505
  H   7.06753184855376     -1.96281176723994      0.86697592644055
  H   11.02691783450928     -0.95491473266259     -0.04631741792304
  H   0.58253078415263      1.95580342576008     -0.45839594651059
  H   0.89305927850227      3.55981371363780     -0.11548974548584
  H   6.35095632239357      2.32761839975621      0.05854503210844
