25
Coordinates from ORCA-job 2499optt
  Br  1.33562168977275      0.04250131376635     -1.06545017018567
  C   3.16692219215449      0.04028003835436     -0.61820507354985
  C   3.97831983808671     -1.07775174259017     -0.74011486795198
  C   3.46709228603104     -2.42924520077579     -1.19829663020037
  C   4.50990149867941     -3.10877415945889     -2.07675350923117
  C   5.52960389536836     -3.46130858200051     -0.98850225066710
  C   4.59124495912891     -3.96643768386571      0.12379656221777
  O   3.34865582630752     -3.29892739185313     -0.07432340514418
  C   6.22293669507595     -2.19897456770634     -0.52691749789672
  O   7.39967212409592     -2.16260597748931     -0.26453183211975
  C   5.34677000299600     -0.98732602031625     -0.39091711297727
  C   5.92864135796516      0.18028114068191      0.08223889212394
  C   5.08158313511356      1.25856158353518      0.19253675400102
  C   3.73111792661134      1.22145887295152     -0.14297329391096
  N   3.17942879706945      2.47456085602759      0.08904568535811
  C   4.16613850946327      3.16348622717865      0.52891240834517
  O   5.35322703773962      2.52121647530741      0.62766418960969
  H   2.48613632876310     -2.34208061874827     -1.65588749950922
  H   4.90650610828712     -2.45943831787753     -2.85568412160821
  H   4.09741615705881     -4.01051158505006     -2.52952673698043
  H   6.28121080777971     -4.19456620894473     -1.27009749656384
  H   4.97006405306629     -3.75206474419271      1.12489902982993
  H   4.43457565755830     -5.04284955800227      0.02882701080383
  H   6.97795872140485      0.20550014875385      0.34121964240845
  H   4.16025439442231      4.19901570231483      0.83004132379884
