31
Coordinates from ORCA-job 25001optt
  C   1.32229594835238     -1.07244130376511     -0.80063080369622
  C   2.50270663661464     -0.26624597151267     -0.27537904184731
  C   3.25006889314278      0.44321460669173     -1.40007834206812
  C   4.45428103641276      1.24235254996626     -0.90679121877240
  C   5.60174837811150      0.35857757311953     -0.45455156348793
  O   5.64108791977285     -0.83295358553367     -0.58320998610625
  C   4.98623059620519      2.22066193738589     -1.91407961807614
  N   5.01601048113291      3.51126827222857     -1.69487089551784
  C   5.52693986782672      4.17852400154063     -2.80420570485171
  C   5.66904180491578      5.65936374722212     -2.82689623318331
  C   5.82826862630965      3.25761785990446     -3.75039008186963
  O   6.34814283951706      3.43232511446689     -4.99752631608943
  C   6.58356927350235      2.35232653692420     -5.73071029311177
  C   6.33942830622865      1.08751067228751     -5.31919880703070
  C   5.78509933232610      0.88179213436674     -4.02339973392400
  F   5.56961542202327     -0.36790827967854     -3.65858055306215
  C   5.50663489803313      1.94065201752392     -3.22720341905239
  H   0.78536639229758     -1.56890104874720      0.00785971691911
  H   1.66125124377031     -1.83958776373737     -1.49905827516551
  H   0.61520412074976     -0.43006410488043     -1.32972198817964
  H   3.19137276646363     -0.92499938767116      0.25683770451024
  H   2.15030684945248      0.47775136088470      0.44512402971601
  H   2.56908999146751      1.12543905180319     -1.91609575447473
  H   3.58791387314599     -0.29494377929011     -2.13097901744764
  H   4.17691285229147      1.85558964975636     -0.04176904272072
  H   6.44986412446450      0.90626914660075      0.00101859512897
  H   4.70159413055843      6.14108473363041     -2.67728806531525
  H   6.07916706701914      5.99406995173680     -3.77887298274051
  H   6.33061639534642      5.99460701728299     -2.02667403571947
  H   6.99632934890241      2.59769014899107     -6.69847170344184
  H   6.55984058364259      0.24935714050152     -5.96120656932169
