33
Coordinates from ORCA-job 25005optt
  C   1.59343480073906     -0.75761870470677     -0.56514793785793
  C   2.86804943815595     -0.02596302497008     -0.14435860699249
  C   3.00716835273028      1.25989002308328     -0.91788844950707
  C   3.37481349767007      1.44879953292297     -2.23484701263329
  C   3.37468622968651      2.76711392679837     -2.67454280920633
  F   3.71844568101493      2.99735053770752     -3.94448902082673
  N   3.07328589121993      3.81977975048502     -1.96425892324988
  C   2.72075867257121      3.62159934811470     -0.68920300344766
  C   2.66906585032008      2.35958834164582     -0.13275873613859
  C   2.31788953068594      1.93270068811521      1.26941357149375
  O   2.98900316657078      2.66992273939028      2.27222453453540
  C   4.01973402428194      1.87656551193838      2.86337247133288
  C   5.23648678466415      2.75132847628006      3.08651146174836
  N   6.28307962557980      1.96754573050652      3.73716398972705
  C   4.23658368701598      0.71366037557388      1.90387767895946
  C   2.83559916695850      0.47553857969378      1.33040940503570
  N   2.07139217954307     -0.29921529551737      2.29159086628868
  H   1.62674755668687     -0.99825825102712     -1.62791604394588
  H   0.71302346718330     -0.13254194681848     -0.39629765918698
  H   1.47024263636367     -1.68700899617276     -0.00901580896851
  H   3.72699526582316     -0.68260196432972     -0.30987776008115
  H   3.65596254197966      0.64533386655123     -2.90207150622147
  H   2.48616380484516      4.50589241940117     -0.10775613152334
  H   1.24167149927004      1.99907479277362      1.45752968739852
  H   3.65615421929450      1.49769946801095      3.82615815182746
  H   4.92799764745057      3.64140880584952      3.64690885463797
  H   5.60200562919212      3.08809298993282      2.11369206126838
  H   6.01580607203206      1.73934632528905      4.68807619132237
  H   7.14596276869442      2.49299465802287      3.79395937509928
  H   4.63666522416874     -0.17092671733277      2.39708917052794
  H   4.93091074111474      1.01051598559055      1.11341329956033
  H   2.46498285197803     -1.22525768773841      2.41455567040359
  H   1.10523149451473     -0.40735028506415      2.00648296862013
