25
Coordinates from ORCA-job 2500optt
  Br  1.42767209048250      0.04049966025420      0.99441107851384
  C   3.20558241658873      0.01209609314410      0.41320662899433
  C   4.00341596890851      1.09812180516880      0.39033574709933
  C   3.79765519820428      2.55920290162150      0.71562369329539
  C   5.16387245129619      2.92747550335815      1.30097191939783
  C   5.91516376301780      2.42371267075423      0.05169719717658
  C   5.14609444422318      3.24799282440575     -1.02199728368823
  O   3.80350667156240      3.25559932303928     -0.54205576834008
  C   7.40081287642605      2.59841570051233     -0.00911663433645
  O   8.01312821201211      3.31627891016408      0.72900716080764
  C   5.37057971060474      1.01555565631962     -0.06320387808638
  C   5.89981127949399     -0.14439555724858     -0.48817019459496
  N   5.07659165187491     -1.25333823789119     -0.45641097291179
  C   5.28920867912691     -2.56093287793828     -0.78519833319812
  N   4.20868303278610     -3.25858646346052     -0.57116168914268
  N   3.24518675240242     -2.43522176598305     -0.09194009817512
  C   3.76101927703763     -1.23126944488714     -0.02158385263687
  H   2.90012562893257      2.81859200260890      1.26614898585508
  H   5.42541183139404      2.37234266109529      2.19947441118301
  H   5.28137670108954      3.99743437990376      1.45968279415846
  H   5.18800175649542      2.78930962430668     -2.01051773486401
  H   5.52709629172361      4.27100023452715     -1.06838782081503
  H   7.92386192355860      2.03811712204178     -0.80934557450957
  H   6.90781802123121     -0.29887382722304     -0.84475136679897
  H   6.22632336952651     -2.93312889859382     -1.16371841438321
