36
Coordinates from ORCA-job 25017optt
  C   0.97194550910261     -0.30713315060086      0.27513806755017
  C   2.46999622049223     -0.05566325401544      0.14862198584761
  C   2.82847728628166      0.48695720116252     -1.23605378664576
  N   2.30965209066005     -0.30252193897218     -2.34127085553343
  C   2.58336389121894      0.35633840407716     -3.60185249670588
  C   2.83406469814407     -1.65351837574194     -2.34749508111025
  C   2.96451118823439      0.92677295431098      1.23265617958651
  C   2.54776171272209      0.49158777713844      2.64387300373838
  O   2.86263774027158     -0.84980724288965      2.93679143207818
  C   4.46150169448566      1.10155317577436      1.17387770669096
  N   5.22360719555719      0.17752472957591      1.64570505236596
  C   6.59929207593591      0.28848865195426      1.63692378194308
  C   7.15180373836293      1.39423873552695      1.12546022354961
  F   8.45427546595360      1.62789690121264      1.06511406930470
  N   6.39643542763944      2.40071243111484      0.61573986725235
  C   5.00363370664818      2.35380694220206      0.58674779442722
  N   4.24572034276896      3.26164218697327      0.11758010775828
  H   0.61783067161794     -0.90454816782696     -0.56385019192356
  H   0.42242060364368      0.63852519240935      0.26030924158068
  H   0.74130474155365     -0.83262706357734      1.20078424025755
  H   2.99953069986971     -0.99763305815030      0.31665471655525
  H   3.92947280112408      0.57705340144235     -1.31929029758486
  H   2.42649881089919      1.49974079647652     -1.33148694761510
  H   2.15418236494477      1.35845308239004     -3.59464179055063
  H   2.13202529785869     -0.20645441171889     -4.41955917146861
  H   3.66539748356585      0.44625804946161     -3.80028468059151
  H   2.51565540709760     -2.19591550891068     -1.45771297099085
  H   3.93742176006852     -1.67050602301739     -2.38742052157833
  H   2.45296820400135     -2.18550481263507     -3.21950633455299
  H   2.51562177850064      1.90378824943086      1.03949033536928
  H   1.46736175256759      0.58985371323361      2.74544892391183
  H   3.00708425385519      1.16877191514593      3.37429375203826
  H   3.80041276179311     -0.96635228928639      2.73301620206734
  H   7.19373855986206     -0.51359546544568      2.04314444571045
  H   6.87304575694137      3.20932652407540      0.24240472540717
  H   4.76034630575543      4.05748974769969     -0.25335072813906
