27
Coordinates from ORCA-job 25015optt
  C   1.63822372187522      0.58710807972905      0.59643789968642
  C   3.01118800880888     -0.01638301589981      0.24723570259993
  C   3.31509480856384     -1.12990979219091      1.15119995709549
  C   3.52244023962094     -2.05984991443016      1.87771722352103
  C   3.05636776486606     -0.47452864923198     -1.18787639238834
  C   3.20073816482965      0.21293122451535     -2.38366360531261
  C   3.07904967977868     -0.74480438750599     -3.43583181527456
  C   2.87165455254015     -1.96080447768496     -2.85742486865175
  N   2.85837328442085     -1.78004956871854     -1.50142768392091
  C   3.45989443336573      1.62924582401659     -2.56816809244252
  C   3.71325414397444      2.23177965914987     -3.75050404799189
  C   3.98295808530083      3.65423219077745     -3.86239345190420
  O   4.22476950288304      4.24428267440249     -4.89556865744829
  C   3.93898210795881      4.32593462115504     -2.55631788401782
  F   4.17156798762460      5.63256815098258     -2.51549941108644
  C   3.67790268801658      3.66049501512655     -1.43019284287045
  O   3.43815818141209      2.33223397438090     -1.40806814250894
  H   1.62878640771179      0.92981760632669      1.63030978946856
  H   0.86032386383955     -0.16602859938615      0.47202815128329
  H   1.42548104589132      1.42483978409007     -0.06465685386510
  H   3.77514879225874      0.74928880032017      0.38554643287646
  H   3.72796493427024     -2.86765344445644      2.53932506371488
  H   3.13990622476420     -0.55307363731238     -4.49364195212311
  H   2.73963245646194     -2.93593171499186     -3.29273560637469
  H   2.77807032913962     -2.50338890564945     -0.80365279813347
  H   3.73225914356168      1.64662556582401     -4.65769432497991
  H   3.63380944626045      4.11902293666180     -0.45348178895101
