23
Coordinates from ORCA-job 2501optt
  Br  1.26753600108255      0.01358576216547      0.48734241504201
  C   3.10620457812740     -0.00732001065793      0.15636302462488
  C   3.88285592289957      1.04973242641468      0.42813654036040
  C   3.65783697143983      2.46432864531538      0.91263777150764
  C   4.96947386886710      2.72064931883546      1.66259977406334
  C   5.80705222428481      2.33785545121261      0.43278905781031
  C   5.17888691638658      3.27130550307815     -0.61296834504291
  O   3.79357336505380      3.29773916139817     -0.25132055495461
  C   5.73774460182874      4.68142534770041     -0.56025788751930
  O   6.84278698271461      4.92576293483997     -0.17171312630348
  N   5.23749341545314      1.00581075544099      0.15852740798027
  C   5.75292856620252     -0.09445239162110     -0.43686901626917
  N   5.08803972427997     -1.15403091317021     -0.71529536357422
  C   3.70599194039924     -1.22744215089961     -0.43037673349420
  O   3.07267041801514     -2.22045684237646     -0.66617772202139
  C   7.16834142655053     -0.01980374397614     -0.75519242703130
  N   8.28322667820555      0.09729151519763     -0.98795805275006
  H   2.70866923968587      2.66104561531576      1.39556186211620
  H   5.13551318637944      2.05473198801932      2.50575657132418
  H   5.08791539317801      3.76179919836378      1.95330895173550
  H   6.88990802733687      2.34395396733409      0.49031165514634
  H   5.28829100770941      2.87993636476583     -1.62985686362052
  H   5.04105954391925      5.46855209730375     -0.90034893912989
