30
Coordinates from ORCA-job 25029optt
  C   1.13639226349388     -0.08569376644501      0.16024276822420
  C   2.65084557523687     -0.04753855130981      0.07800523461649
  N   3.09956351941359      1.02751377878832     -0.79510529821749
  C   4.54419197866267      1.15054001870617     -0.83742996444392
  C   4.96503911354562      2.28087545469360     -1.75855229342922
  N   6.41334793147770      2.37247638188810     -1.76025808906761
  C   6.96679029898101      3.32341939396281     -2.33246978240481
  O   6.32535473123401      4.30446295596161     -3.00775728681372
  C   7.03195286667948      5.40532581485110     -3.43429191647160
  C   6.59543352117243      6.52010784908254     -4.05045293385057
  O   5.35263526765972      6.89551729958840     -4.43003535017589
  C   7.76124012092239      7.36804746780420     -4.28810343433609
  C   8.88095695181170      6.76456015451355     -3.82497343395719
  C   8.46312263598938      5.49253953178206     -3.27022388375622
  C   9.03303937755373      4.43153151192161     -2.70715238928509
  F   10.30620021997532      4.26358249642001     -2.47656678149220
  O   8.34815398567511      3.36100153858761     -2.30138851507680
  H   0.80340535075873     -0.90358689791882      0.79932094395408
  H   0.70477354701031     -0.21803025196435     -0.83176021780420
  H   0.74709379764240      0.84496453066618      0.57919633799663
  H   3.02546219579982     -0.98746324282445     -0.33600718756055
  H   3.07842476120559      0.04250401527037      1.08867876627574
  H   2.68982465860201      1.90241175125963     -0.48240830244497
  H   4.96058969926492      0.21467247666577     -1.21819203581076
  H   4.99224970582377      1.31512657182787      0.15417069365767
  H   4.52010965744691      3.22535123176343     -1.42278623709211
  H   4.58907549380224      2.09102690218103     -2.76797895807429
  H   4.71599038151505      6.21379477927207     -4.19020270877525
  H   7.69471259609525      8.33387342697803     -4.76553615467002
  H   9.89102779554820      7.13608537602624     -3.85198158971418
