29
Coordinates from ORCA-job 25033optt
  C   1.12794739569396     -0.58634642011256     -0.36617421060458
  N   2.34587619258929      0.13694116308447      0.00726030426448
  C   3.25040766599900     -0.47345283353267      0.87346968417217
  C   3.82197208270138      0.19076126603378      1.91853969737599
  C   3.54086317877104      1.65458406291026      2.09213822375177
  O   4.22210825250013      2.37706272746632      1.08483853670680
  C   3.73289027022506      2.25442582739811     -0.24514363991926
  C   4.89094383954808      1.81912311096879     -1.14463835642255
  O   5.44351912891545      0.57698522880931     -0.78494939624791
  C   2.46979403045017      1.42010923953534     -0.48739036334407
  N   1.53871726650449      1.85679700129926     -1.24259285945202
  C   4.79850229753395     -0.46655435906817      2.71583000140025
  F   5.36698874978447      0.20625069644211      3.73029619022759
  C   5.15067034907367     -1.74203943421380      2.47963108557027
  N   4.54465082804414     -2.39995426445603      1.44637876190938
  C   3.62477796346211     -1.86313778824510      0.56388462610565
  O   3.20872998349430     -2.51655138636026     -0.37237132763682
  H   1.08755313588628     -1.51480628389648      0.19177972600730
  H   1.12378248299639     -0.80220476040314     -1.43236394280525
  H   0.26726552792253      0.03944666347582     -0.13350361499932
  H   3.92378442224152      2.02206895340426      3.04035410391502
  H   2.46314679284070      1.84003413138318      2.04759709391863
  H   3.45286571939671      3.26310407553187     -0.56216458666364
  H   5.64826839032197      2.60909836701161     -1.11025622227887
  H   4.53053375370021      1.72698135175320     -2.16962396007699
  H   5.81230297295333      0.66653224794347      0.10119893757734
  H   1.73242677855724      2.80300499782239     -1.55204470370941
  H   5.88750324006934     -2.27267136896716      3.06260582076875
  H   4.83320730782302     -3.33959221301818      1.21441439048927
