30
Coordinates from ORCA-job 25037optt
  C   1.46103496887557     -0.58557740106614      0.24458303282314
  C   2.86301358630321     -0.06279385914995     -0.03874718497151
  C   3.07544815883438      1.40657421606908      0.37763519151907
  C   2.40143865177492      1.81854892657952      1.70487899585191
  C   2.80112476846195      1.15473026357480      3.06586182855284
  O   3.23314324103005      2.20293714997421      3.92956359259911
  C   3.57903898537501      3.34041053200378      3.13740740870715
  C   2.53152746877140      3.33468623244247      2.03287459419520
  C   1.18567527846645      3.87700178871829      2.49377556459758
  O   0.80392823972631      3.54819464373659      3.73970525649498
  O   0.47642836445692      4.52790297928816      1.78641202759622
  C   3.84146492980787      0.04366176812560      3.09668919086121
  O   3.60575828708222     -1.07664793234153      2.74851293444637
  C   4.54961082004608      1.76100576190262      0.27925798237576
  F   5.12220884353944      1.22174067434679     -0.79646567969270
  F   4.75923463602658      3.08581396556534      0.20381609807830
  F   5.25632484799084      1.33472017821175      1.34434005267556
  H   1.33654481559947     -1.57169859740212     -0.20093675338927
  H   0.69264140003572      0.06836098604633     -0.17440749366952
  H   1.28482038136768     -0.69208113176875      1.31579276127261
  H   3.06312390483022     -0.12385247971725     -1.10868350629297
  H   3.59309564673263     -0.70439651221886      0.45133454262321
  H   2.59429212981350      2.03336075662431     -0.38053276778907
  H   1.34854970238682      1.59444406016705      1.54043082075913
  H   1.90588555961240      0.71415487557457      3.51397356454925
  H   4.58525510052293      3.23865390866440      2.72810814590438
  H   3.54246184138625      4.21640804746904      3.78349852761488
  H   2.81895416810659      3.91766796969166      1.16372702812840
  H   1.50158622070028      3.04712054823543      4.19452100902980
  H   4.81038505233622      0.33494768065275      3.53707323454891
