30
Coordinates from ORCA-job 25040optt
  C   3.05952477939846      1.44035467998569     -0.22373724523878
  C   2.66249827601811     -0.01752685766050     -0.04064191556880
  C   3.15378015717547     -0.57596906065685      1.31197193431620
  O   2.61813465241305      0.17941863466184      2.34771589817464
  C   2.62627933953198     -2.02426645178261      1.46693019969788
  N   3.07085682352544     -2.93650643685501      0.58227392564367
  O   1.80412780833950     -2.26409942026861      2.32894053404639
  C   4.68308075577049     -0.54056893375249      1.35831071024941
  N   5.26820454719014      0.09391611921631      2.35627921500192
  C   6.58047434135735      0.13188083611172      2.31136784907305
  F   7.21657497224260      0.77048366616092      3.30123286545868
  C   7.35460797022559     -0.42502166547930      1.33163320799104
  O   8.71094393450072     -0.38666876296501      1.26998257045260
  C   6.64466212778330     -1.09362555704179      0.31726009715443
  N   7.31692727596408     -1.68023223460462     -0.69389880572527
  C   6.65189203326490     -2.41855745279290     -1.74241379172049
  N   5.31441954646521     -1.14050966228477      0.34393247390952
  H   2.62233293387493      1.84500902373613     -1.13654149552160
  H   4.14388771283210      1.54599313621567     -0.29692122951893
  H   2.71603378032692      2.03610861186251      0.62084396628083
  H   3.05776983219789     -0.62936102585451     -0.85192695882215
  H   1.57485370153916     -0.11905249074999     -0.04337389341953
  H   2.06024667169366     -0.42369993799563      2.86523416852818
  H   3.86866745157223     -2.71865533555426      0.00431315300514
  H   2.76445198635274     -3.88848089463108      0.69423993753543
  H   9.05375908018398      0.08688031034197      2.03729603308723
  H   8.32097704513667     -1.66529754493572     -0.64504813424525
  H   5.86763693386465     -1.81223370213520     -2.19512852960739
  H   6.20054008347012     -3.33889615086667     -1.36250878316128
  H   7.38385344578847     -2.67581543942523     -2.50361795705677
