28
Coordinates from ORCA-job 25042optt
  C   1.16338578819937     -0.77941482914763      0.01988819776071
  C   2.53175873794766     -0.12547767437251      0.18492115045319
  C   2.97730352581976      0.82681655398275     -0.96350884433415
  N   2.40802810824049      0.52081463630503     -2.26600176744522
  C   2.54449294220473      2.29139453173291     -0.64991867907215
  O   2.99876383433578      3.19272559655649     -1.60938814056422
  C   1.06806552352993      2.38318848457745     -0.52380816970806
  N   -0.07456815261792      2.44716167688985     -0.46525929703072
  C   4.49929934643234      0.86452202632818     -1.05342104336110
  C   5.25282640926809      0.81960978839294      0.08475896009007
  S   6.92173682423621      0.97594095224508     -0.20332916874759
  C   6.67015308619742      1.09921856144523     -1.87355446876384
  C   5.34763586173281      1.03135898880066     -2.20544413526784
  C   4.98795083103141      1.07071772551747     -3.66720000342621
  F   4.11619583262192      2.02941020734119     -3.99626078355913
  F   6.07996031138051      1.29463567182387     -4.41180359792900
  F   4.47803197104887     -0.09556616086768     -4.09766127761015
  H   0.94478811804938     -1.38316177658497      0.90046350449323
  H   1.14862602333926     -1.44631687698229     -0.84268618398172
  H   0.35791501821673     -0.05546973397371     -0.09002151065398
  H   3.27948723629247     -0.91492852895662      0.27443383848235
  H   2.55624779599375      0.42783284744436      1.12923391659973
  H   1.39757519717529      0.44830678501876     -2.20710900327987
  H   2.76030476476295     -0.35239493613769     -2.63903910139283
  H   2.97639715489585      2.58490490051463      0.30818213929566
  H   2.85567163967793      2.78523920420105     -2.47746543836059
  H   4.89295179223177      0.70724389174010      1.09495498548141
  H   7.50001447775515      1.20868748616507     -2.55095607816797
