33
Coordinates from ORCA-job 25045optt
  C   2.33619967264782      2.20304564441958      0.69471516608204
  C   2.13977947579919      1.81073676633737     -0.76627270144950
  N   3.00508650454234      0.72510127912812     -1.19043510319987
  C   2.58619862676027     -0.62826438101134     -0.86966983968459
  C   4.33233025223184      0.94786198268264     -1.43571258579066
  C   4.86454523935090      2.24608367536141     -1.57272065133015
  C   6.19584409050118      2.35567246401958     -1.87617230703940
  F   6.68399941335788      3.59878592697753     -2.01848181589621
  C   7.04007774766059      1.26010620232579     -2.04416362818548
  C   8.52598719436517      1.36223459213169     -2.33318413465324
  N   8.91951094092918      2.37775310111254     -3.30917529855708
  C   9.31606233532525      1.57271629791901     -1.04185992677958
  O   9.03479046981799      2.81803911056501     -0.44118092901137
  C   6.40316471001300      0.03368899889207     -1.84295615317274
  N   5.11038013555242     -0.12787092444719     -1.55370114240938
  C   7.17415478744450     -1.18348704630450     -1.91440622890879
  C   7.82938321317322     -2.18635478434932     -1.95858078168016
  H   1.66629232708338      3.01813827202023      0.97052686843497
  H   3.36289839460694      2.52430050142226      0.87592438307762
  H   2.12738038462599      1.35385099654487      1.34680391384100
  H   2.29265848107064      2.66841800399207     -1.42196091150954
  H   1.11177680084235      1.48672000796577     -0.93089436370019
  H   1.49834659162153     -0.65103736553480     -0.83820101896104
  H   2.98058679646124     -0.96684852450753      0.09344075243532
  H   2.93897762797926     -1.31958938712999     -1.63054605774017
  H   4.28465875029778      3.14638007805608     -1.44586518580122
  H   8.84675577245621      0.39834457418187     -2.73045507144678
  H   8.41533988512841      3.24214333255523     -3.16339056785177
  H   8.70842275214330      2.07079619491657     -4.24980134366755
  H   10.38167458121366      1.48037110378452     -1.27231215890946
  H   9.04354122701098      0.80694968057890     -0.31459463248013
  H   9.38358009643017      3.51029020440917     -1.01198165760270
  H   8.40261472155526     -3.08207657901525     -1.99373488645215
