29
Coordinates from ORCA-job 25053optt
  C   0.92093588924920      0.53920929070335     -1.92370885573537
  C   2.41909074798450      0.57904993255736     -2.16614712888011
  N   3.10813126391645     -0.23622541974516     -1.17082437577053
  C   4.51300468574792     -0.45989785351380     -1.47096502178268
  C   5.32986382293174      0.85070414145940     -1.22780863184336
  C   5.90864247198266      0.64937712270438      0.13416830670735
  C   6.51015785470947      1.26927354948963      1.19908014669409
  N   6.71442438494567      0.28999423612826      2.12098805954550
  N   6.28874867667936     -0.91768955573095      1.73383273024990
  C   5.80836418679994     -0.68432875287704      0.52948367690264
  C   5.11654747416852     -1.53811836580379     -0.48768867024014
  C   4.12248610730298     -2.49435038374930      0.18290633647066
  O   3.21014837171254     -3.01900200386250     -0.38658451228425
  C   6.10667871441395     -2.42220881006163     -1.24816770052971
  F   7.10184727559259     -1.70607765041334     -1.78275817041175
  F   6.65747225447111     -3.33751239939116     -0.44509938060642
  F   5.50932355164511     -3.07771143602414     -2.24715565701464
  H   0.39487062429396      1.15953681484198     -2.64897112061618
  H   0.68836753185031      0.89912436085122     -0.92164299972807
  H   0.54187297888614     -0.48043314673882     -2.01579040314973
  H   2.76938025899796      1.61034319841019     -2.09877521311820
  H   2.64204567060420      0.23446878255943     -3.18761511612031
  H   2.63534742902180     -1.13203407594372     -1.13177904566510
  H   4.64917975786337     -0.79370613422347     -2.50771739919004
  H   4.67803441996228      1.71889822402020     -1.29504727806221
  H   6.11262779181817      0.95832013977735     -1.98062008323461
  H   6.79902694907173      2.28751609747751      1.39745303977671
  H   7.12759474755776      0.39080927448659      3.03232751952761
  H   4.33278410581855     -2.68632917738803      1.24862694810893
