26
Coordinates from ORCA-job 25060optt
  C   3.12010285920928      1.32561435885716     -0.32949621033161
  C   2.54474864650483     -0.03047981919679      0.06192349723827
  C   3.08698481844673     -0.62229607587371      1.39355488693762
  C   2.53415719826568      0.08997159372140      2.65417802636230
  O   2.83405495161100      1.45528607308177      2.71139924072324
  C   2.60974540739238     -2.01273886704872      1.48803260462718
  N   2.21329299598810     -3.08397674075052      1.57986094339785
  C   4.60641509718220     -0.64199784549771      1.38834083560393
  N   5.28363279301880      0.10836592601520      2.23543517325637
  C   6.62764260108909      0.13693369544063      2.24886171181049
  C   7.39847829936860     -0.60841657855936      1.38749023509766
  F   8.71882990480944     -0.56289727395001      1.42424496316931
  C   6.72175153222111     -1.40998974058966      0.47592234097276
  C   5.34375109335798     -1.41649483115901      0.48409416057712
  O   4.94258110022288     -2.25703023859445     -0.47149159599414
  N   6.11582834226973     -2.76508947617100     -1.06686767124103
  N   7.11877335587028     -2.28252143686933     -0.52482553358147
  H   2.72297095791619      1.61711950520394     -1.30156328227282
  H   4.20775259957804      1.28677387749217     -0.41949038454953
  H   2.86532216858108      2.09277531827725      0.39643139164237
  H   2.74717097355405     -0.75634745081458     -0.72833967571575
  H   1.45893463382055      0.02923442076684      0.15957213057754
  H   2.90488065962038     -0.44143917606504      3.53618482069218
  H   1.44814590101442     -0.00394531480482      2.63433456710966
  H   3.78898392417704      1.52237979074251      2.83955683113016
  H   7.10506718491009      0.77920630634585      2.97765599276031
