27
Coordinates from ORCA-job 25064optt
  C   1.03622841477549      0.02869084763905     -0.22430016701706
  C   2.52422397169914      0.08596506821980     -0.18204663109021
  C   3.21575040326087      1.18369532181617      0.10540861599996
  F   2.61626466668817      2.34061602481671      0.40953851666125
  N   4.61863709683847      1.34049556465572      0.04063493234379
  C   5.23768965293757      0.09165000419650     -0.09958539053860
  C   4.58002067414702     -1.03395226876024     -0.38009172064448
  N   3.20313284826276     -1.10612856476582     -0.58834959174010
  C   5.56327175218855     -2.12611898847687     -0.50730877288095
  C   6.90236824388624     -1.49706282835691     -0.28144842182491
  C   6.69295196698756     -0.18911118912683     -0.04381057107813
  C   7.64800151221189      0.81628920183643      0.25558786946047
  C   8.40864491981542      1.70527709746704      0.52093720923847
  N   5.21185200156897     -3.32264609331998     -0.72559359123903
  C   6.22396826043688     -4.36144024378115     -0.83218895740355
  C   6.04213320314866     -5.36390762995036      0.21839280285942
  C   5.90285010854595     -6.17946799524940      1.08287316518249
  H   0.59751570052843      0.98422027577851      0.04988820566969
  H   0.66309546197207     -0.73349541442341      0.46499305253354
  H   0.70363045942491     -0.24289515247217     -1.22865082253921
  H   4.99015531171315      1.91355797402678      0.79203527073363
  H   2.78235571323474     -1.96381924614109     -0.25021094109136
  H   7.85654665185641     -1.99501129154597     -0.26967770413551
  H   9.09626134991230      2.48482023531982      0.74874397535822
  H   7.24832671846757     -3.98189691697750     -0.79251454324314
  H   6.08882240868739     -4.84564148810785     -1.80278493533262
  H   5.77430052680335     -6.90568230431698      1.84952914575794
