26
Coordinates from ORCA-job 2506optt
  Br  1.40513933689985     -0.27564267692035     -0.85624820341343
  C   3.28444719732191     -0.12505191119197     -0.64505180907758
  C   3.85932248509605      1.11984713397351     -0.47454453527180
  C   3.29300067659783      2.51468199793197     -0.35654742779150
  C   4.46879488233566      3.34409473102103     -0.90370217009271
  C   5.63904623549944      2.63904783726504     -0.19600203206300
  C   5.55880675216067      2.98038381850797      1.31060974669807
  O   4.33118937142464      2.52837607448739      1.86768508632396
  C   3.17089408407118      2.89041487338541      1.14064079149830
  C   2.04579887234012      2.21057592006677      1.79670103711140
  N   1.15118752084183      1.69971220527766      2.29549169405561
  C   5.76007911351644      4.41664810981665      1.54798004296602
  C   5.92213772478055      5.58824798672154      1.73308815362071
  C   5.24609085065369      1.18752895982919     -0.36861062341601
  C   5.99981879640146      0.03244503278118     -0.40200319964768
  C   5.30652800489370     -1.16248063094276     -0.57557990852745
  N   3.98557451054640     -1.24005740656812     -0.70337426998076
  H   2.34130706424288      2.66553683991999     -0.86217578018616
  H   4.40119420808650      4.40415362784363     -0.65956513620247
  H   4.54726451341350      3.22952311089054     -1.98403641332819
  H   6.62614587831974      2.89355522093562     -0.57753626866936
  H   6.32250722949806      2.42282122073703      1.85473000098126
  H   2.99946394539573      3.97148287707151      1.21760281370220
  H   6.07099111989773      6.62720993716887      1.91067926230030
  H   7.07827284493006      0.03862779042586     -0.31642025405062
  H   5.83999678083425     -2.10468268043517     -0.62481059753913
