28
Coordinates from ORCA-job 25075optt
  C   0.87662728032949      0.19531456995073     -0.67588915927610
  C   2.30475144445432      0.56508897125043     -0.29089722093471
  N   3.02297089137282     -0.62805187161533      0.16032888818042
  C   3.88271695049581     -0.95414959696260     -0.71675760274168
  N   4.71165956358018     -2.02802426345862     -0.66873707624531
  C   3.93475413224278     -0.08402522002042     -1.95880088191959
  O   5.22345138729407      0.13730822007759     -2.44665202799421
  C   3.20501421478322      1.17549387105695     -1.42360938828445
  N   4.25199956843257      2.02621176186541     -0.88570354357312
  C   4.05706773874499      3.04677573935454     -0.14308841550217
  N   2.94031172794294      3.66641731826122      0.27662424299244
  C   5.32119268273181      3.65737922330169      0.42090586584701
  O   5.29770124630124      4.56912000201932      1.19546117042502
  C   2.46599356745387      1.87834713004543     -2.55720498645431
  F   1.66054023322150      1.05497098137414     -3.23268989338873
  F   1.68580959701228      2.88389934703924     -2.10300477979510
  F   3.30882050104877      2.41337101447448     -3.43888904650843
  H   0.40723823082915     -0.26398132154316      0.19297254958997
  H   0.86266103260494     -0.52982509168884     -1.48863011334015
  H   0.28902428359902      1.06496326017212     -0.97145455908657
  H   2.26442221947558      1.26664682072276      0.54338326031577
  H   4.80621513397596     -2.49604659484346      0.21766999222573
  H   5.53804331594710     -1.96569715334770     -1.24255636447105
  H   3.35904989406036     -0.56679690784606     -2.75185386550618
  H   5.56519654345954      0.89514828955270     -1.94397563633436
  H   2.03980079434712      3.47918746760315     -0.12540814475399
  H   3.06546280252555      4.47894195068767      0.86124667654292
  H   6.24750302173294      3.17901208251659      0.06821005999094
