23
Coordinates from ORCA-job 2508optt
  Br  1.39451266000962      0.32363054766165     -0.80929667381514
  C   3.19461159296518      0.08911912575995     -0.34939637295023
  C   4.03867717286467      1.11473243505335     -0.14478468620676
  C   3.89319321519059      2.59942658250679     -0.12929331137297
  C   5.37127526428098      3.06015213032937     -0.11663151096440
  C   5.51295004168448      4.22208477276449      0.85953214854764
  C   4.31170315166355      4.15398386823080      1.77846580865708
  O   4.11573504985945      4.76719693404343      2.78009982180908
  C   3.29680654900353      3.13989469909217      1.16954233044272
  O   2.25146316627984      2.85107227514839      1.65897329112651
  O   6.11953057444796      1.92552515721028      0.36974668676410
  C   5.39449873289710      0.80320684565349      0.19402193924564
  C   5.84992496523370     -0.45948592313311      0.32475433781394
  Br  7.63229775932912     -0.82009561105356      0.76496481191567
  C   4.94013613306331     -1.58040042326259      0.10207615672919
  N   5.16038910473778     -2.83019191007340      0.15644747300516
  N   3.63165975619987     -1.18714308526575     -0.23634487237498
  H   3.32775255212292      3.00137756939540     -0.97269419666628
  H   5.74234786231263      3.29489134961460     -1.11325869581402
  H   5.47994479359875      5.17949024023088      0.33311601134824
  H   6.44781288254481      4.18027538995373      1.41632366110015
  H   6.12482634236474     -3.02474924345930      0.40460101007547
  H   2.99795067734535     -1.95699372640106     -0.39996516841583
