34
Coordinates from ORCA-job 25084optt
  C   1.90013742297723      1.19978890043895      0.99649540322033
  C   2.32962911109420     -0.09534100682787      0.31953383402580
  C   3.16434934584827     -0.95254987142846      1.24557281702527
  O   3.54090447721833     -2.13486243693497      0.56193190409930
  C   4.30595033858252     -3.01240352994887      1.33944365437329
  C   4.39721593842961     -4.35748932692595      0.64095965670938
  O   5.24077503022207     -4.26284399401249     -0.47357790502426
  C   5.38942790491002     -5.49288740664791     -1.14155427735758
  C   5.68905923490607     -2.47943855487860      1.69104948060055
  C   6.26710127969001     -2.81468162950193      2.85465212574876
  F   5.63075083298916     -3.62289237281309      3.71485339101823
  C   7.57430214722647     -2.34488070341834      3.23865929119436
  N   8.21083745776676     -2.60946870697746      4.30557480796073
  N   8.17874447303192     -1.48753023091009      2.28421677642447
  N   7.62905926986662     -1.19698772933836      1.20028564570097
  N   6.41788517693694     -1.66347009912359      0.85423402472993
  C   5.97920318604865     -1.20970642877859     -0.46397048842062
  H   1.30015250001513      1.81252558056208      0.32506852493112
  H   2.76576325951991      1.78952500760312      1.30328861167680
  H   1.30187438042032      0.99740397792696      1.88651366101444
  H   2.91030509647187      0.11993664979861     -0.58043903770806
  H   1.45814243993569     -0.67123803171156      0.00229597681045
  H   2.59418491722870     -1.21520356344409      2.14681548846028
  H   4.05840436486070     -0.40335180412258      1.57254843116047
  H   3.80018511413721     -3.18974032532278      2.29668834580405
  H   3.38595299125431     -4.65939761801313      0.34220387353421
  H   4.78808280493255     -5.09394819383948      1.35508375974490
  H   6.07211021440271     -5.33271754346446     -1.97264863466940
  H   4.42818279191224     -5.85071091921217     -1.52506591135759
  H   5.80905244951816     -6.25139698038528     -0.47201117997634
  H   7.66392507918088     -3.23360260610027      4.89529497423228
  H   6.87036455372566     -0.84075354496840     -0.96195999736788
  H   5.25183005858390     -0.40356862732175     -0.37449246445963
  H   5.54315435615514     -2.03711632995715     -1.01254456385903
