33
Coordinates from ORCA-job 25106optt
  C   1.07977101825067      0.53143127480574     -1.02369541849568
  C   2.19656150052566     -0.04741583259797     -0.16121421337607
  C   2.87527659929031     -1.32545590736037     -0.71228490702643
  C   3.35028728268993     -1.08605419906244     -2.16298806773020
  C   4.41708582967615     -2.04845848888427     -2.67086867187975
  N   4.52022655937000     -1.93169962055353     -4.12160189312233
  C   1.88058824135723     -2.49565028214921     -0.73907951589793
  C   1.65748615837470     -3.07320555466315      0.63369962142731
  O   2.87111729256679     -3.61560328111215      1.14123474161050
  C   3.97172915538147     -2.84194850936590      1.11799917848079
  C   4.96121131320023     -3.26424758715000      1.95334450068516
  C   6.23132365006805     -2.64918438258033      2.15968128407482
  O   7.09894142570030     -3.00640288435559      2.91432929457945
  S   6.57364841800751     -1.14144954735604      1.20543721309243
  C   5.14186119928785     -0.93932881579308      0.27902360986127
  F   5.23803254094911      0.14476480877824     -0.50071420192757
  C   4.02644254396539     -1.69283806984322      0.23368371851358
  H   0.68689483039994      1.43553509443408     -0.55838303480755
  H   0.24307440048895     -0.15745011253490     -1.14426422056313
  H   1.43972880082438      0.80255638078148     -2.01604657008342
  H   1.81326441887469     -0.25520448074262      0.84117214401419
  H   2.96903494470686      0.71267013155780     -0.03464332229785
  H   3.71133287090760     -0.06637284608316     -2.29624206755681
  H   2.46890828978806     -1.18441833414672     -2.80574814376813
  H   4.20316007225748     -3.07051833567843     -2.32932425708004
  H   5.38653085827717     -1.77864203386861     -2.24873228133517
  H   3.68111596827620     -2.27859828488419     -4.57148741938437
  H   5.29739423784462     -2.47253441416006     -4.47933422003539
  H   2.25936291956093     -3.29241055198265     -1.38348547891551
  H   0.93287594278667     -2.16200101254070     -1.16183943003610
  H   0.96069467824486     -3.90801427017903      0.61805749991617
  H   1.28406936275696     -2.32382832519519      1.33747646999820
  H   4.77196667534321     -4.14302172553377      2.55483805906560
