30
Coordinates from ORCA-job 25101optt
  C   1.01870774433967     -0.55456445601091      0.70018411705234
  C   2.29751727019083      0.24231571653824      0.46916613428421
  C   2.48742159146350      0.44096067031603     -1.03972782172254
  C   3.66116450899722      1.33586120966086     -1.49058685479577
  C   4.93187154162557      1.01361660077479     -0.84288932376381
  N   5.94021041914567      0.77668281840726     -0.35123118617554
  C   3.32712955412768      2.82009885343985     -1.45100954926853
  N   2.84530932542516      3.24168896841198     -2.62726468716277
  C   2.52190016324038      4.51501091581469     -2.73724275909707
  N   2.65083725048926      5.43506381611124     -1.78672352330669
  C   3.11327084554940      4.99255921132194     -0.65090442930332
  F   3.25016322926805      5.90698100029256      0.29856395159404
  C   3.46751900440159      3.66968799403095     -0.35719268705602
  C   3.95753869470168      3.37414974217917      1.05424038481732
  O   5.35215358766190      3.55844445910539      1.17666769477528
  C   3.52228196770525      2.04118260379763      1.70596270146853
  N   2.27415779113837      1.44056002787642      1.28677563926731
  H   1.01013980956629     -1.47279857270665      0.11125871626419
  H   0.14847909721896      0.03939898608401      0.40945663910642
  H   0.92061492787022     -0.80681149465493      1.75436032113902
  H   3.14156298991983     -0.35203608038490      0.83296515932822
  H   1.58456188586571      0.87754575139109     -1.47644149584862
  H   2.61880446652245     -0.54112539568629     -1.49904600114514
  H   3.81776616243481      1.13687463556313     -2.55222963594954
  H   2.12596666983372      4.84789714866833     -3.68959458627551
  H   3.53351797740495      4.17083071437856      1.66341128581123
  H   5.80878360622211      2.81022419492821      0.76996245580438
  H   3.49556741634807      2.24438453886740      2.78004237182633
  H   4.31474163156106      1.30833335138495      1.56551834759724
  H   1.53833886976058      2.09098207009894      1.04854862073478
