30
Coordinates from ORCA-job 25113optt
  C   3.78300259263578      0.62008120268700      0.91014136181331
  C   2.58181844103743      0.25006020065675      0.03575620954848
  C   2.90269380684888     -0.89956887185562     -0.86896650759961
  C   2.63553949983997     -2.19309866137510     -0.57042573601696
  C   1.98368150202603     -2.70107586268092      0.60987144024546
  C   1.77701853606146     -4.02047131324114      0.76496947064322
  N   2.20522038238487     -4.95035624662686     -0.17887181307938
  C   2.78880296513608     -4.50631660425356     -1.20405294732022
  F   3.23796676163039     -5.32972879589077     -2.11515803627080
  N   3.02732144274675     -3.18241976521417     -1.48414091511902
  N   3.62586486302514     -2.90441587982224     -2.69306552120102
  N   3.88052118474436     -1.73147753411549     -2.97687852548119
  C   3.60269186100872     -0.62467079724964     -2.10379007259305
  N   3.96897039975788      0.54113903391856     -2.45369963817690
  C   1.04647956750959     -4.62388781399987      1.93366671122409
  C   -0.35050555076241     -5.06667905256133      1.48631918372243
  N   1.86786952527696     -5.69658996328651      2.48229034431687
  H   3.55411791211412      1.48218735166382      1.53664555309399
  H   4.63693713883842      0.87052988829928      0.28124546146893
  H   4.06184902460623     -0.21247217612324      1.55845641477855
  H   2.32043570454710      1.10252407694499     -0.59233929106881
  H   1.71530486476424      0.02114428491709      0.65660339234655
  H   1.66983083094845     -2.00182342247274      1.36952934852956
  H   4.42817276352690      0.49989685960964     -3.36255159721757
  H   0.94733489552451     -3.84997158574878      2.69769446948842
  H   -0.26827906263695     -5.80183397021771      0.68408859810440
  H   -0.94066463763122     -4.22108936704366      1.12882915657417
  H   -0.87719756787797     -5.52589876099646      2.32397023919010
  H   2.06944597319446     -6.37364836136806      1.75314152905793
  H   1.36975437917381     -6.17906809255322      3.22072171699810
