33
Coordinates from ORCA-job 25115optt
  C   2.94036099144244     -3.82605095674151     -2.19477745265933
  C   2.64624145663383     -4.69691031982968     -0.98324113920701
  O   3.14544794487466     -6.00926385038560     -1.16502888680094
  C   3.21335483168092     -4.09991875936947      0.30602743792566
  N   4.66153946023919     -4.11844831640605      0.26475876989932
  C   5.26486327175906     -3.00195223169162      0.29327426736171
  N   6.61062775263859     -2.85046469588837      0.15705390826105
  C   7.25045805707939     -1.60741434577589      0.52744303073997
  C   7.46556704748669     -4.02331610256315      0.08276233712831
  C   7.91589715557994     -4.51116394341498      1.43330503154199
  C   9.11759625381919     -4.21697858803731      1.93687049249783
  F   10.02183590298677     -3.49726360606220      1.29935032283871
  O   9.58619645578232     -4.58596704872910      3.12048824455162
  C   8.81113997183429     -5.36166634483059      3.99677481231316
  N   9.27716607130153     -5.69633673735069      5.11565711930312
  C   7.49296759077862     -5.71487674329872      3.50404718716483
  C   7.07160255829410     -5.30964606872330      2.29716950571383
  H   2.53101605753060     -4.28719706516542     -3.09265393575865
  H   4.01810131882140     -3.71251971819144     -2.32672021140436
  H   2.49956657684907     -2.83326630738203     -2.07892740612397
  H   1.56536042327446     -4.80150559895197     -0.86392751383774
  H   4.09230451276548     -5.96879826658136     -0.97955626587400
  H   2.88109766918610     -4.72126158130255      1.14120563532966
  H   2.80987353229989     -3.08782778762585      0.44768876191620
  H   4.73397108510218     -2.05003466127534      0.40943557700241
  H   6.52815113843140     -0.79466487285697      0.47702856816586
  H   8.06457697260100     -1.39098162094448     -0.16606722418954
  H   7.66267938826847     -1.64676499308632      1.54125246768531
  H   8.33317577211664     -3.76785715135748     -0.52640499276913
  H   6.90486066994587     -4.80837215452578     -0.42168785938014
  H   10.22143969785649     -5.34448708245237      5.25620077731361
  H   6.88930098120797     -6.31772350440340      4.16495266186365
  H   6.08566142953135     -5.56809897479888      1.93124597148697
