28
Coordinates from ORCA-job 25119optt
  C   1.31097033763414     -0.87564505568097      0.34205798085034
  C   2.59321779913539     -0.20539996446091     -0.08566055850546
  O   3.33927864521555      0.22904773038382      1.07544118429118
  C   4.57343631946135     -0.25514643812708      1.24853249945907
  C   4.91364681563006     -1.59086947922808      1.22171942737058
  F   3.91969436386092     -2.46209350317481      1.00346933497345
  C   6.22613136504365     -2.06709659293306      1.42849217346714
  N   6.40439848367471     -3.43741531916999      1.34346554704166
  C   7.56278058113571     -3.91776798051367      1.58481503534106
  O   7.80429670146341     -5.21100129243264      1.50287793386870
  C   6.71714480364222     -6.05319482118853      1.11892919616031
  C   7.18145370484336     -1.08591459429349      1.69824906034022
  N   8.52150227194638     -1.13945365699684      1.95698678121265
  C   8.83709443062654      0.13881012174837      2.13748324672275
  N   7.84474762447551      1.05833746381549      2.02547706731813
  C   6.80558393031226      0.28433118769193      1.74925092192760
  N   5.52563173550654      0.66258603496130      1.51221623123055
  H   0.72929609548019     -1.14503729241902     -0.54038035190458
  H   0.71483399473313     -0.20046418658018      0.95486642823069
  H   1.52209995014437     -1.77862851498560      0.91132960368338
  H   2.39273868622621      0.69774918467544     -0.66309081649791
  H   3.21578859944113     -0.86898453535630     -0.68503132064783
  H   8.44124753232883     -3.34232537480712      1.86994480707883
  H   7.12006666958344     -7.06068881802726      1.10102814553543
  H   6.34807298836649     -5.76172028094125      0.13701860178508
  H   5.90611457858429     -5.96798318525742      1.84020140172005
  H   9.84823702965243      0.44369177919291      2.36731708106160
  H   5.26549396185176      1.64027738410495      1.53399335688529
