28
Coordinates from ORCA-job 25123optt
  C   3.39733261167030     -0.16573746941037      0.96482210684267
  C   2.40704537644203     -0.00827920426191     -0.17949564105747
  N   2.94137278973485     -0.52152310169557     -1.44561937962649
  C   2.86069158986673     -1.91033890844358     -1.67974637717068
  N   2.36533083752558     -2.76972433583448     -0.87614681392422
  N   3.36767418666830     -2.33844258003417     -2.87771160901336
  C   3.29448104988865     -3.71510842537680     -3.20142160107986
  C   3.74132520654948     -4.14531403534137     -4.36825418320493
  F   3.70710487116992     -5.42792758395175     -4.70992707780434
  N   4.33151707602009     -3.33394941581789     -5.34771151899297
  C   4.45596616031039     -3.80816516632659     -6.71649330174842
  C   4.35952135526845     -2.00507977989116     -5.04124358210782
  C   3.92674042195173     -1.49831332937468     -3.87027922104798
  C   4.06250880927640     -0.07470661571359     -3.61764050785983
  O   4.52444717636886      0.71904897478160     -4.39995358086658
  C   3.56722539145424      0.41304822526765     -2.25419435352572
  O   3.70360115327840      1.56273888577815     -1.92839968799106
  H   2.96238991521457      0.21082630445392      1.89067461636663
  H   4.29950052098203      0.40696778053923      0.75198438852479
  H   3.67403106612119     -1.21007562994597      1.11161365106078
  H   2.18952160146111      1.04276236647833     -0.34569037861103
  H   1.46359630535504     -0.51449682148903      0.01976344129454
  H   2.04333815035934     -2.37104696459321     -0.00749940514432
  H   2.88369257050951     -4.37126889533169     -2.45403901384591
  H   4.99536740722636     -4.75188330594078     -6.73552897343348
  H   5.02035651616641     -3.06706061111892     -7.27718000060701
  H   3.47816910202247     -3.94529695624648     -7.18544054757241
  H   4.77215078113745     -1.32565340115882     -5.77424144785343
