28
Coordinates from ORCA-job 25129optt
  C   1.37051744291946      0.03966382772039      0.72812958383384
  N   2.33143155345459     -0.02065753743565     -0.36780143873163
  C   2.30007076668737      1.07784528566598     -1.33940108456989
  C   2.97735418949832      0.55338642863248     -2.56393159972668
  C   3.14033089889100     -0.77271498149431     -2.55530647068632
  N   3.72959149128335     -1.46499278821988     -3.55539913969148
  N   4.29192095374044     -0.80544541097972     -4.57987423971554
  C   4.14409963524460      0.45599261969615     -4.64826971196988
  F   4.75740149389454      1.03534909513937     -5.67612752996891
  C   3.40120932966553      1.33748310291918     -3.71020975704267
  N   3.11582704535481      2.57509402165452     -3.77858363319284
  C   3.41974116498991      3.42629552165897     -4.86793381109579
  C   2.41468239932014      4.52043803962529     -5.11914661917697
  C   3.73341251390203      4.85488600259183     -4.51066386556032
  S   2.42705715129683     -1.49353629968506     -1.11158607740541
  O   3.36354013001188     -2.35622036827964     -0.46326840623039
  O   1.12465400680363     -2.01929702058125     -1.40250438660417
  H   1.52976114238652      0.97413365528866      1.26366669769974
  H   1.55450583994780     -0.78567484488523      1.41473094827820
  H   0.33875232936614     -0.01026519563158      0.36963392942714
  H   2.83189554099655      1.94091532423572     -0.93582923857639
  H   1.27275533162983      1.38580534025081     -1.56895576847969
  H   3.95632064485409     -2.44353416730986     -3.48680006627317
  H   3.91814388442743      3.02485889875134     -5.73727499731688
  H   1.54918975503757      4.52197351165746     -4.47322613775743
  H   2.23222790636801      4.79271498392477     -6.14865672955725
  H   3.75305741519116      5.08446036462682     -3.45564307029372
  H   4.47154804283642      5.36204259046240     -5.11476737961536
