29
Coordinates from ORCA-job 2513optt
  Br  1.15038401677247      0.25788867321099     -0.59341363268407
  C   3.03119283131715      0.07630936179197     -0.30402893980813
  C   3.56973148700846     -1.18304449846068     -0.00524875473943
  C   2.74029127896968     -2.43566297257951      0.10034754731986
  C   2.09100668776108     -2.53907308366179      1.48983698812988
  C   1.25263650090286     -3.81451654729006      1.62239091539354
  C   2.06622113336199     -5.03407195244101      1.25001703828447
  O   2.18004737241515     -5.98943512845237      1.97319562459416
  C   2.74664490811524     -4.95325514701232     -0.10140158762865
  C   3.58467036205260     -3.67546046460582     -0.22969452295929
  C   4.83154961345055     -3.73796949639155      0.64889090173306
  C   5.66465745813624     -2.48208157004813      0.55738104553946
  O   6.85163289232662     -2.48137792334886      0.75947625554798
  C   4.94803947475575     -1.20403631803092      0.20870659848073
  C   5.69246609843638     -0.03362406472877      0.10351096450597
  C   5.03495822593412      1.13629028565046     -0.21528802579974
  N   3.71581865367901      1.18465895530612     -0.41332183945488
  H   1.93535564239217     -2.37205208637871     -0.63689802773079
  H   1.46457920528606     -1.66321035485577      1.66140129943184
  H   2.86587739513278     -2.52367397706408      2.26032805192224
  H   0.40522260010108     -3.75498335272639      0.93076037740484
  H   0.86422235285312     -3.94209367417396      2.63129687363495
  H   1.96276063452560     -4.94262461126668     -0.86538457945226
  H   3.35495503741999     -5.84592684677823     -0.24344079886696
  H   3.91281151575436     -3.58688401335226     -1.26973223757995
  H   5.46951740464609     -4.58335877043245      0.39036622770726
  H   4.55875409636759     -3.87015895402767      1.70233007045178
  H   6.76055233572613     -0.06431776221130      0.26823272589228
  H   5.56544278439964      2.07474629435979     -0.31861655927012
