26
Coordinates from ORCA-job 2514optt
  Br  1.29282190714573     -0.40873684502284     -0.94683836406308
  C   3.09917622082576     -0.19018118016820     -0.40828473670731
  C   3.78405410813029     -1.24293437046854      0.09135421752147
  C   3.03071041183499     -2.56698780810058      0.50194778257071
  C   2.90064419665830     -3.80556270460993     -0.48358276748687
  C   4.27753387569804     -4.62542265809870     -0.28780558906275
  C   4.83295060715763     -5.02907081723079     -1.61929756255555
  O   5.74645180232058     -4.46496159640806     -2.15864491338456
  C   4.97230037654649     -3.41926770339859      0.35990735768170
  C   6.10234013397100     -2.44845621314470      0.66521640766933
  C   5.24370323785059     -1.13592892097102      0.44353711612472
  C   5.87563490853890      0.04293928896032      0.42196282679913
  S   5.21666915349583      1.56533287559789     -0.02959992576479
  C   3.57345245988386      1.18901037255473     -0.59162186815167
  O   2.92432774786576      2.09026422421047     -1.05091429150020
  N   3.97232948898545     -3.16087477286123      1.41095896458072
  H   2.06276425593652     -2.30824829930746      0.93077215113984
  H   2.78195047812959     -3.49492493453119     -1.52296437274150
  H   2.03392330953004     -4.39428800454099     -0.19006522521919
  H   4.12718428612020     -5.49378977775080      0.35334808177783
  H   4.33136211989786     -5.88262595479943     -2.11408893193089
  H   4.73853063469846     -2.83825871668816     -0.54354114490671
  H   6.90170989112722     -2.47425978419025     -0.07291545084342
  H   6.52402555006957     -2.50405883224276      1.67016877746343
  H   6.93267208284661      0.09799322502498      0.65763147801851
  H   4.30277675473467     -2.49770009181412      2.10235998297112
