29
Coordinates from ORCA-job 25148optt
  C   3.79870235464198     -0.19301055006238      1.12124158384583
  C   2.65839108787830     -0.10077364177219      0.10179411078155
  C   2.94991593024836      0.90394794118354     -0.98273819064934
  C   2.64889725648760      2.21600893804631     -0.80344334866113
  O   2.06098707422223      2.72586447927819      0.30288509293374
  C   2.93501742412978      3.23189401088436     -1.81453470714446
  N   3.55432156160494      2.71655918433681     -2.94234165891510
  C   3.85768959009028      1.40000418287175     -3.10583687240351
  F   4.43398390712554      1.15957516789710     -4.28362178406366
  C   3.60358067622722      0.45280075632524     -2.19522938694780
  C   3.95195974147618     -0.98543752891591     -2.44331129190480
  N   2.63979493825129      4.46156813297799     -1.61217520116331
  C   2.99287122389454      5.45500810171761     -2.58408982425442
  C   1.96686717941916      5.60248699942531     -3.69024784767583
  F   0.73585731363599      5.80893717011286     -3.23507066183662
  F   2.28316493223297      6.62666118922133     -4.49407627107856
  F   1.91932117984534      4.50284244625785     -4.47338437271435
  H   3.57543076339863     -0.92627939619858      1.89618789507772
  H   3.97741985957752      0.77169816954988      1.59912981862606
  H   4.72701915742534     -0.48653078245346      0.62971406047121
  H   1.72004523516480      0.14395263034679      0.60797260792189
  H   2.49147570744703     -1.08025244845340     -0.34575264767109
  H   1.94290452710694      2.03409576270838      0.96047600386143
  H   3.66887643247159      3.30800325031643     -3.75159387882645
  H   4.51126795110130     -1.08708755487396     -3.37032445524242
  H   3.05413406917657     -1.60173711718422     -2.52502535240271
  H   4.55988423662209     -1.39498966769492     -1.63469955578262
  H   3.96125716524978      5.29459053397352     -3.08196005203620
  H   3.04496152384658      6.42859964017771     -2.09394381214500
