32
Coordinates from ORCA-job 25150optt
  C   1.40922447705992      0.03753298600520      0.92241818122147
  C   2.75349146870407      0.10568013025010      0.26488122974548
  C   3.17516032590500      1.21281842999427     -0.45456524711925
  N   4.37416660062449      1.25619462237368     -1.03726461522141
  C   5.12670562116543      0.21122909679665     -0.88718972052362
  F   6.32274685948777      0.24400681336901     -1.48339819362308
  C   4.76232537439639     -0.92686836669018     -0.15585399647291
  N   3.56152540935654     -0.95161337187306      0.39831349630270
  C   5.64851297327594     -2.13376625591381      0.00993225318984
  C   5.67963934687930     -2.92287631675185     -1.30592452600261
  O   6.38635024142954     -4.14169956106092     -1.24241195728993
  C   5.94698186618709     -5.06343810826955     -0.26274376000879
  C   6.96294391183014     -5.18082017683800      0.86039650454705
  O   7.17478589874464     -3.98316133241598      1.57508700238460
  C   7.89420701156914     -2.98010715463054      0.87336326287716
  C   7.01777922463075     -1.76558800828644      0.59580234509783
  O   6.81852124812821     -1.01618500471380      1.78380212111287
  H   0.82195536425103      0.93077485161970      0.71723268810818
  H   1.52598667269828     -0.06661677598837      2.00143704815042
  H   0.86181401412508     -0.83538565813723      0.56636535540059
  H   2.54030058405603      2.08294527433783     -0.57010411150952
  H   5.14369652814442     -2.74354150341297      0.76198558295748
  H   6.16608496442987     -2.33908675384958     -2.08923945983456
  H   4.64261365138323     -3.10865226444872     -1.61289866598657
  H   5.84451481037990     -6.04172522956091     -0.74145346473188
  H   4.96601788066494     -4.78148626310022      0.13036595882641
  H   7.91237999666523     -5.53556313103645      0.44268744627224
  H   6.61213269698511     -5.91760288923087      1.58516983624868
  H   8.30172740355176     -3.37626209595231     -0.05692680590589
  H   8.71653287459962     -2.64850271572962      1.51224856394647
  H   7.56226424598543     -1.10497268298618     -0.07982902527811
  H   6.43491045270563     -1.60466058386881      2.44531467311863
