26
Coordinates from ORCA-job 25168optt
  C   3.50056816595294      1.04954755544068      0.21783840844820
  C   2.39836909528536     -0.00301006760639      0.10269078609315
  C   1.42836620325580      0.36718549264742     -0.93709193803759
  N   0.68012758289487      0.66751237842161     -1.75073168925777
  C   2.93828795293265     -1.39452835990723     -0.17773835833029
  N   4.18789496653443     -1.53196732061495     -0.60393299326694
  C   4.64313032490718     -2.73752842946493     -0.80749109735524
  F   5.90001193180293     -2.81253128064950     -1.24721385035603
  C   3.94979791046701     -3.92613202762145     -0.60169713951227
  C   4.60358756054868     -5.27137441428983     -0.80671978784739
  O   4.37063719112788     -6.15369099494587      0.27049628275115
  C   2.63121819126248     -3.79247572263290     -0.17328546261925
  C   1.73161625417466     -4.97614879547606      0.10258659926538
  C   1.79499314947540     -5.34448180054557      1.51824010091298
  N   1.85869257350913     -5.59877615621057      2.63300802637764
  C   2.14644663330394     -2.51097530813603      0.02628016710582
  F   0.88622736015325     -2.34533339947994      0.44454480915240
  H   3.06104979158888      2.01777840863473      0.44868140042521
  H   4.05962726618722      1.12069571542338     -0.71195038714374
  H   4.19082315927694      0.76768328188431      1.01103779942396
  H   1.83439207138357     -0.05138335525885      1.03830099722617
  H   5.66880337705317     -5.13386546219987     -0.99479577594426
  H   4.17790176136905     -5.75876990784209     -1.68670750796105
  H   4.76974319286647     -5.80462757802379      1.07448743065068
  H   2.03249535645736     -5.83884541936980     -0.48898820111170
  H   0.70019097622872     -4.72095703217646     -0.14084861908923
