25
Coordinates from ORCA-job 25163optt
  C   2.45958366180947     -1.11816566912757     -1.19559393877806
  C   2.72650173335495     -0.11503367421013     -0.07003381490478
  C   3.17856255078098      1.20487888956775     -0.62551278390626
  N   2.39486577754592      2.11070587740658     -1.06071736911495
  O   1.07045983009497      1.76402533941169     -0.93124070840530
  C   4.63233767092705      1.44602472954428     -0.78767635169662
  N   5.40877373799888      0.40898633451801     -0.74817490178634
  C   6.73094121993215      0.64980929891610     -0.94575441006503
  C   7.83035030384323     -0.16462578907720     -0.99789561873300
  C   8.02490265391585     -1.62194946082165     -0.84604123558824
  O   8.88691918113522      0.60225013977998     -1.24037831838061
  N   8.54975788595730      1.93907681700329     -1.35538055963825
  C   7.25491574691228      1.95003417323101     -1.17649120776952
  N   6.44666056592425      3.05330143241126     -1.17733498354492
  C   5.21658208976665      2.78734082825749     -0.98904160478584
  F   4.39001619042609      3.80960095943638     -0.93008676681110
  H   2.10325726749777     -2.06314346042815     -0.78649722554812
  H   3.37319290654114     -1.30914577901714     -1.75784264041322
  H   1.70349830609869     -0.73309587354718     -1.87901482692419
  H   3.49509752789674     -0.49927652872429      0.59736729107817
  H   1.81634868512298      0.05241622469529      0.50387343241323
  H   0.60583518498989      2.53544629684327     -1.27127967125713
  H   7.06075918973216     -2.09166535493844     -0.66380915468087
  H   8.69272309631403     -1.83327514559718     -0.01029235532043
  H   8.46615703548131     -2.04452060553344     -1.74915027543863
