32
Coordinates from ORCA-job 25172optt
  C   1.81324921099168     -0.02119687091811      1.14493541407655
  C   2.50393044651173      0.18450214942661     -0.20504215479284
  C   3.09242595928422      1.54212245232786     -0.35246156699143
  C   4.38885105922902      1.89739657464364     -0.50173026023563
  O   5.44201461975865      1.04132007681676     -0.55511527401397
  C   6.04067966626094      0.95081186211359     -1.83949990696230
  C   4.45263723695421      3.34959454056567     -0.57032729134314
  C   5.40531893743264      4.29859398597492     -0.65171942616680
  F   6.70260199825539      4.00677764081455     -0.75992114851496
  N   5.11003382316281      5.63067736075683     -0.62308901827211
  C   6.16312757133017      6.62580747786833     -0.75242654031789
  C   3.79063752349549      6.11457534638863     -0.50076643497565
  N   3.46789678895278      7.36388607911462     -0.46706100529866
  C   2.75152530260872      5.11657099631751     -0.41418704480406
  N   1.43388412696943      5.55430314038974     -0.24568234598793
  C   3.10017298763184      3.80692521878878     -0.44163273160536
  N   2.28796249452463      2.69048885120824     -0.36272424946349
  H   1.41177862970066     -1.03136553896269      1.22203055777115
  H   0.98280124527293      0.67386119095727      1.28133676420461
  H   2.51834312865980      0.13363203269864      1.96164443411151
  H   1.78747021241333      0.01176328783097     -1.01361296948637
  H   3.31157772886780     -0.53796822667310     -0.32556062408048
  H   6.87948687396439      0.26475641140709     -1.74834221801394
  H   6.40238644820209      1.92580200768070     -2.17339411504799
  H   5.32234469274742      0.56309092263189     -2.56688487489606
  H   7.12207858746975      6.13883901705540     -0.87689276687624
  H   6.19011373572633      7.25142075975421      0.14107808537060
  H   5.96155893163720      7.25602051255870     -1.61996589090568
  H   4.24894261307640      8.00247418799531     -0.52628192158042
  H   1.40237060467815      6.56601660060148     -0.32038097216777
  H   0.78704671425258      5.12567633692283     -0.89535853725617
  H   1.39275009997676      2.73182361494306      0.09803603452292
