33
Coordinates from ORCA-job 25179optt
  C   1.19544192353265      0.11217370849363      0.77951798318791
  C   2.65828440051326      0.00840232489882      0.34198663561360
  C   3.53789542178366      0.45325832758852      1.52845024945547
  O   3.33551473383061      1.80689405391691      1.88295614145754
  C   2.99316627686448     -1.44113133089665     -0.07148902992943
  C   2.77052291573507     -2.52087227176924      0.98719302209585
  N   3.23607428737932     -3.79032237943985      0.47087837185836
  C   2.38912530598040     -4.71464495375604      0.32618823895719
  N   2.72456980726687     -5.96764248470137     -0.11290307339334
  C   2.92716497854737      0.90610991135686     -0.86152207645519
  C   1.95546032533373      1.61160204597674     -1.49678951511856
  N   2.19737962080755      2.36525110073509     -2.59912330618806
  C   3.43534204492921      2.51472765313751     -3.22564140701106
  O   3.54047190884320      3.19848461010730     -4.22496207939400
  C   4.49065395841418      1.79432664707723     -2.55362370367198
  C   4.22289454560278      1.05231104160620     -1.45763211260895
  F   5.24793020154950      0.41515488153498     -0.87578379239061
  H   1.03622160680226     -0.48871108190822      1.67363072334334
  H   0.51817846142087     -0.25575808882966      0.00559946075001
  H   0.93357331695580      1.14031041593132      1.03034220988183
  H   4.59100928567821      0.25342093357996      1.31903418927775
  H   3.25739447711402     -0.12325117907613      2.40990773480263
  H   3.64751013310506      2.36859618363906      1.16626254248376
  H   4.03523783047202     -1.50513474820841     -0.38650330200894
  H   2.38621047235288     -1.69353967463089     -0.94644283679920
  H   1.71182801124909     -2.56499385031319      1.27737689850385
  H   3.34780113638760     -2.28728528578449      1.88554032258302
  H   1.32816198388274     -4.60202588248662      0.57967295536019
  H   3.64198079945697     -6.06162477953882     -0.51988696316050
  H   2.00133268550806     -6.53769948297458     -0.51464773609558
  H   0.92946284091727      1.60696658652438     -1.16138346553598
  H   1.44102863078003      2.86799888407614     -3.04112809880821
  H   5.49217567100322      1.86064816413354     -2.95107518104273
