30
Coordinates from ORCA-job 25193optt
  C   0.82704707455569      0.12404720543968     -0.18128322619827
  C   2.33708013288688     -0.07399686268777     -0.11823798425489
  C   2.73752824335906     -1.43339661414128     -0.71675945391206
  C   2.30847977226391     -2.57492502601245      0.16121859405945
  C   1.31533580905480     -3.42387366630770     -0.20990311398089
  C   0.86412814050945     -4.50163982154298      0.64346266631182
  O   -0.02151617620583     -5.29871635837858      0.41552205370561
  N   1.56561512674832     -4.57306009657146      1.86124165154138
  C   2.54936747235429     -3.72266792760295      2.21298426761820
  F   3.06486238215524     -3.96960383609182      3.40776905829454
  C   2.96877798164349     -2.71763010769803      1.42208240366978
  C   3.08808411642942      1.04208123062355     -0.86001435894865
  C   2.59061182859075      2.37407440157484     -0.50859203530326
  N   2.22738349531500      3.42042689693442     -0.21444685613593
  C   4.61190489795707      1.04369088439470     -0.57698694783688
  C   5.44747382961772      1.91273798777302     -1.47345325124873
  O   5.06564876536830      0.38024749134335      0.31253385094933
  H   0.31715005998499     -0.70299168302611      0.31203333675686
  H   0.48605509313537      0.15817392590088     -1.21939424085685
  H   0.52548010533168      1.05076849928603      0.30592470132151
  H   2.66619711372202     -0.04032285773862      0.92236458097794
  H   3.82206619472024     -1.48152067794717     -0.83415966760400
  H   2.28348476715967     -1.53617803075840     -1.70581036761356
  H   0.80616345354960     -3.32273639910375     -1.15828928938279
  H   1.28816347282333     -5.30653482189118      2.50025627935190
  H   3.77009204213878     -2.06426609531299      1.73386285637644
  H   2.94737852816628      0.93029689053200     -1.94181469520394
  H   5.37766862206063      1.54288520217018     -2.49901361971682
  H   6.48260116622883      1.89635673614913     -1.14514948198646
  H   5.06368648837487      2.93427353069152     -1.46994771075076
