29
Coordinates from ORCA-job 25191optt
  C   0.91211604715656      0.46580369001793     -0.43135544086879
  C   2.35815675856854      0.22701362544978     -0.15313642583582
  C   3.12526453015049      1.01619804411079      0.62797896393380
  F   2.58526182703030      2.06926437373236      1.23618880125925
  N   4.45214525674565      0.87588351395681      0.88915248290439
  C   4.99300542439534     -0.15521860165803      0.34995650026551
  N   4.34054533485169     -1.06766797038007     -0.41278111203393
  C   5.18731556180191     -2.17762528056534     -0.82267269979934
  C   6.40404108448598     -2.01032171014482      0.07461966994615
  O   6.12617015783503     -2.66444716189574      1.30920417406883
  C   6.74706734431204     -1.96760458557968      2.37074388285183
  C   6.96064377839062     -0.54809030203752      1.86747261759437
  O   7.49276276362740      0.34621193251891      2.44956979883886
  C   6.46081703359639     -0.52003615317763      0.42601301411704
  C   7.29971422104669      0.38425811231105     -0.46209185495651
  C   2.99041256416897     -0.93070928873850     -0.76844989794604
  N   2.35281010018275     -1.72256647886735     -1.53985757363002
  H   0.55427024589342      1.35117182436963      0.08703353548844
  H   0.32447226413731     -0.40187509294660     -0.12836874070813
  H   0.75784375074499      0.58263909681217     -1.50523569839129
  H   5.43594232284574     -2.10632028656123     -1.88423907679231
  H   4.69370233640458     -3.13070870557553     -0.62895830418030
  H   7.32699573040524     -2.39013235889296     -0.37179131210753
  H   7.71905329607670     -2.40184162914733      2.62869356623060
  H   6.10450221337335     -1.98648284992220      3.25072538715877
  H   7.24169252242075      1.40450466694607     -0.08595628331035
  H   6.93822031541681      0.36545325240327     -1.49122166594543
  H   8.34274890823401      0.06745358412122     -0.44763523292575
  H   2.92730630570065     -2.48120726065945     -1.89460107522627
