30
Coordinates from ORCA-job 25197optt
  C   0.80878139795883     -1.48056901803759     -1.07973697855450
  C   1.97382005704640     -1.07234819888329     -1.96545060432226
  N   3.07220643468229     -0.58482583790174     -1.13679864863330
  C   4.37879349741040     -0.81323531048848     -1.28226385668249
  N   5.31255432538427     -0.58185400357528     -0.40307633079060
  C   5.08227792814398     -0.00351627094471      0.81452414478358
  N   3.94633032310526      0.48089620981164      1.19823513880982
  S   3.67433432818428      1.25727029755667      2.63454510037065
  C   5.21921467181588      1.36445645624200      3.48813904270046
  N   5.36907379382126      1.99560702743323      4.57922288774170
  C   6.33358098249811      0.66044280334438      2.87447581605730
  C   6.26602717605967      0.05408387908729      1.68901009153219
  F   7.34509266071618     -0.56570422152791      1.22499545847136
  C   4.87595257664666     -1.36841110474233     -2.60140981530616
  N   4.43341598683766     -1.02701789843937     -3.74865445056514
  N   5.88302393481165     -2.26264384648207     -2.45687924517693
  C   6.60829878139274     -2.70714556582051     -3.62654853831296
  H   -0.02847502369710     -1.81274128386436     -1.69242663618961
  H   0.46818404193091     -0.64050210559506     -0.47201509878782
  H   1.09719589410186     -2.29310901520252     -0.41306596167247
  H   1.65528333155956     -0.29046891105715     -2.66031561646474
  H   2.32178434702692     -1.91558572788856     -2.55828625346004
  H   2.82900660824148     -0.11898004604821     -0.26746994074183
  H   4.51437556367049      2.45071093745971      4.89739240682072
  H   7.26391316231367      0.65556402394464      3.42881297522692
  H   3.67918655871849     -0.35370539923618     -3.67250540426439
  H   6.36327102709470     -2.21120808860065     -1.57095943601084
  H   5.92111982305504     -3.18492834489939     -4.32324305726781
  H   7.36588335101035     -3.42345676246186     -3.31884734746077
  H   7.07949245845803     -1.87007467318231     -4.14839984185005
