26
Coordinates from ORCA-job 2519optt
  Br  1.22570611324927      0.52999760113010      0.20721820630974
  C   3.06382621946190      0.20064616049979     -0.05065574441551
  C   3.88739096383367      1.17512695341415     -0.48464626973714
  C   3.51862441402270      2.60717212470787     -0.80036241195053
  C   4.65483481598956      3.02331313017145     -1.74032530264039
  C   5.87793433446290      2.37134776613570     -1.08847257365772
  C   6.36401989179997      3.17924127033874      0.13424011771108
  O   5.74756118123958      2.84884547624627      1.36902093587893
  C   4.41202923915170      2.99135200663286      1.60152493339818
  N   3.93800462845095      2.72508602226325      2.73704827109715
  C   3.49478232532451      3.45603011931669      0.49630702118341
  C   5.31165699923901      1.02903254576988     -0.67183341862531
  C   5.97075645703741     -0.11699178113213     -0.45918551679479
  S   5.21220240686546     -1.56951944693581      0.05806883225223
  C   3.47919213498219     -1.16719401429943      0.26741375486078
  O   2.75464496788841     -2.04595769135156      0.64857951597645
  H   2.53884006711588      2.67561980870131     -1.26947637494763
  H   4.74759801686046      4.10529940093505     -1.83827321950187
  H   4.49169246217067      2.59913591019828     -2.73239009417582
  H   6.71583743895357      2.27332003820605     -1.77914230704723
  H   6.26058064121685      4.25052087933516     -0.06459083932801
  H   7.41715525573078      2.97146184708455      0.31465920490385
  H   4.67912068131948      2.43289817477947      3.37417198731248
  H   3.72306432523550      4.49478595800861      0.24049348589140
  H   2.50015731400008      3.43043163327625      0.93411734480558
  H   7.04178670439745     -0.20500189343257     -0.59850953875931
