27
Coordinates from ORCA-job 25196optt
  C   0.92614168625563     -0.01992676078741      0.13323710917341
  C   2.45004389874434     -0.13373242399134      0.06247457938621
  N   3.10387385750464     -0.00236832443327      1.35486742618641
  C   2.87552444923383     -1.47588959769359     -0.54650840643532
  N   2.41955707545298     -2.54372364300892      0.31655847514437
  C   2.68662868272266     -3.73529085475836      0.02670846359476
  O   3.44489128106770     -3.96215864569679     -1.16187729131409
  C   3.75945796199082     -5.19628441574195     -1.51629525516152
  Cl  4.67773189438153     -5.25447538493693     -2.95549615611479
  C   3.39923475413628     -6.28001726374386     -0.82414183586591
  C   2.62521864458185     -6.01042147738938      0.37083603496517
  N   2.23100437933897     -7.06057930252762      1.11707563589453
  N   2.30178803502310     -4.81623281313044      0.75844837984727
  C   2.99233044812152      0.98519640497514     -0.82600125127140
  F   2.42779266656648      0.96517645424595     -2.04620456569575
  F   2.73414038067283      2.19123964601320     -0.29760623461602
  F   4.31079613077197      0.91521797782764     -1.01328022785997
  H   0.55623583608666     -0.83034558402436      0.75957482292743
  H   0.46629319973170     -0.09840862380968     -0.85236504274114
  H   0.63692324311705      0.93325655839715      0.57755736706828
  H   2.94475266241983     -0.85857010415642      1.87631237717344
  H   2.70569128195521      0.76433119674965      1.88478940570673
  H   3.96485137305294     -1.48772690719749     -0.64054567162001
  H   2.45150434262424     -1.57159770122360     -1.55090513951744
  H   3.67260296202223     -7.27287763102307     -1.14014768900562
  H   2.41340178888226     -8.00465496975771      0.83279500889043
  H   1.66658708354066     -6.88613580917647      1.93113968126052
