30
Coordinates from ORCA-job 25204optt
  C   2.76245444710572     -1.51088905040073     -0.00948487004959
  C   2.60542894592385      0.00829817560445      0.02186259254477
  C   3.22324314051522      0.53823499678515      1.30276458822547
  F   4.47468798439798      0.09437892969177      1.50079981222660
  F   3.27672776124684      1.87844762951693      1.33682670686841
  F   2.50814286237582      0.15669328628186      2.37079374828576
  C   3.14476551575000      0.72477000793182     -1.24175613583611
  C   2.62670648536644      0.00737363183762     -2.50438261777628
  C   2.52271941491016      2.11046436433542     -1.37604605619737
  O   1.47360893478742      2.43633278220559     -0.90070729142747
  C   4.66440818212391      0.80367919951162     -1.27910424202473
  N   5.31415856913170     -0.26393548929736     -1.73996506560858
  C   6.63642821570887     -0.27215904407212     -1.73894680502689
  C   7.41906227209092      0.79133325779128     -1.28218614264134
  N   8.80278228733891      0.74190178331199     -1.35387173249165
  C   6.74145759285322      1.91258177355536     -0.81304788049141
  C   5.35945959629927      1.91585383144587     -0.80998643273312
  H   2.49105539292124     -1.93763110631263      0.95567410663005
  H   3.78894198522422     -1.79188934865366     -0.24248089778670
  H   2.10564252056156     -1.94262887727184     -0.76147879845004
  H   1.54738726712967      0.27081031474511      0.09823312264814
  H   1.54539007401791     -0.12177261589437     -2.44318628139557
  H   3.11583213704012     -0.95712321587465     -2.60928563066077
  H   2.85956908771668      0.59807868532963     -3.39247313750852
  H   3.07794025859203      2.79332873052834     -2.04975840639494
  H   7.11830912029134     -1.16704636359106     -2.12346755456294
  H   9.20434789519573     -0.18155425554797     -1.39510357258531
  H   9.29617860668753      1.34808121179776     -0.71799948061272
  H   7.29461892209440      2.77034188721313     -0.44882509727061
  H   4.82754452460126      2.77164488749571     -0.41541054789653
