28
Coordinates from ORCA-job 2521optt
  Br  1.13979828361358     -0.29172760753862      0.48757568678934
  C   2.97348926264239     -0.15414822263458      0.09849700998734
  C   3.57797866971090      0.99535211597188     -0.28787572937867
  C   2.90712764151487      2.31444806794850     -0.53900041942757
  C   3.54040311379223      2.93108099887807     -1.79118164442250
  C   5.04100184188155      3.18952171783797     -1.63186068934581
  C   5.77504416632106      2.16676589232998     -0.75002695840465
  O   6.21637629792397      2.75162850978156      0.48545544529562
  C   5.39399786809114      3.55621097858555      1.22862166593969
  N   5.80024503886372      4.66661257216497      1.66139735037338
  C   4.01959606573260      3.05118157037581      1.62604374664156
  N   2.94946099380911      3.16719787743120      0.64986452967042
  C   4.99453962097690      0.89071610196914     -0.46452691228692
  N   5.69566737496528     -0.19522720124846     -0.36861905650467
  C   5.07203054580442     -1.38369719537656     -0.04083086327704
  O   5.60851128104726     -2.45756450361386      0.03400251654947
  N   3.68803039598230     -1.28711340511689      0.23498366712578
  H   1.85489125354787      2.12230493910798     -0.76185425316044
  H   3.02695482850114      3.86335761258506     -2.03513141424518
  H   3.36035589765405      2.24595784292952     -2.62350620537935
  H   5.20856325446593      4.17491488579864     -1.19218010816028
  H   5.51104199043640      3.21471921148777     -2.61432089305067
  H   6.70609431738142      1.84947172308091     -1.21193211129485
  H   6.73977371248957      4.86090519597200      1.31273218261092
  H   3.73335439270750      3.64085443107416      2.49444815847248
  H   4.10123524812130      2.01064603105307      1.94437791005669
  H   2.77414725203026      4.13620590702985      0.41550431784790
  H   3.23928938999120     -2.15057604786465      0.50834307097802
