32
Coordinates from ORCA-job 25214optt
  C   0.88884545468357      0.17161839252058      0.12278139691136
  C   2.38309632043479     -0.07653431094778      0.12489133989829
  C   3.00008983940148     -0.18741384836898     -1.26633411654386
  C   2.56008851979865      0.85890346494507     -2.30327627756994
  C   2.89706272074463      2.29786034614010     -1.89868243262789
  C   3.18188552718922      0.53239967153360     -3.58900580382819
  C   3.71595284862244      0.25636327488725     -4.62530898663648
  O   2.94249263792114      1.00217668716348      0.90767531184522
  C   4.28314261140610      1.13252524074638      1.07891436706341
  C   4.74176179304987      2.39977783207033      1.25558610532352
  O   3.91831154375959      3.47005674602695      1.21861745461589
  C   6.13950690554204      2.70911365845584      1.51436109163533
  N   6.65814619671945      3.86279422807194      1.68716675081692
  N   6.94949326036922      1.58600966473665      1.55695606901116
  C   6.52064902728073      0.29991040213464      1.40322417391878
  C   5.22271896165728      0.04946974964328      1.17381175606830
  F   4.79719754250628     -1.22118451787520      1.03995301599936
  H   0.38424623862751     -0.60821782849893     -0.44863682689917
  H   0.65128725121755      1.13765334879319     -0.32305784734766
  H   0.50603320912273      0.15987054462582      1.14208445070097
  H   2.58582404055159     -1.00663573822996      0.65468391861816
  H   2.74328147198271     -1.17860063584839     -1.64676029727236
  H   4.08998974592129     -0.16762499526564     -1.18847911447621
  H   1.47735339998925      0.77937050191440     -2.43965953996650
  H   3.95314989343027      2.38656547422822     -1.63747557511220
  H   2.30303758603263      2.60168509823813     -1.03793865320903
  H   2.68797288929029      2.98262486877142     -2.71929241404211
  H   4.18668891322915      0.01586346705324     -5.54826286610515
  H   3.01893398179392      3.14796363727008      1.07153763222160
  H   5.94296994069817      4.58068436725351      1.63019173694883
  H   7.92346326890169      1.77783869341268      1.73445058603590
  H   7.25032645812470     -0.49088748560191      1.48228359400377
