28
Coordinates from ORCA-job 25223optt
  C   0.79567787093934      0.12586101407299     -0.07240905589480
  C   2.29981947897533      0.29022717732660     -0.20885707235905
  O   2.98006434685744     -0.93144929342892     -0.33242443067544
  C   2.79054865825974     -1.59205887409776     -1.56541065191823
  C   3.22755184460661     -0.67695466751652     -2.71700105743227
  C   2.47423251025117      0.64084184038383     -2.54891963905606
  O   2.64610851520679      1.17886862801442     -1.25835821336393
  C   2.88316188116583      1.70205457280547     -3.55431073602847
  O   3.00893621392479      1.46594206368745     -4.71954832951408
  C   4.71908854450172     -0.53818276430498     -2.71916020928858
  C   5.45122372553556      0.52036787756078     -2.33729602396968
  C   6.87061604356848      0.35560081763475     -2.46620264597747
  Cl  7.84576331232382      1.72418529683696     -2.05598060379304
  N   7.45815096308398     -0.70298678169961     -2.85572549995965
  C   6.68072159756821     -1.80723526090576     -3.18554078969455
  N   7.09882202862097     -2.93946686918290     -3.52581576440559
  O   5.29762483403209     -1.66420916754749     -3.15389786047600
  H   0.58595474250630     -0.51883522156168      0.77993489233262
  H   0.33245863774688     -0.31359953845816     -0.95453914251899
  H   0.34447703926495      1.10199952012892      0.10036719112424
  H   2.70649946066307      0.75035191520778      0.68974309394869
  H   1.74388305102457     -1.87953793914798     -1.70816449677954
  H   3.39552087738811     -2.49594485320890     -1.53414646013340
  H   2.94529532909623     -1.13061292739931     -3.66959150376477
  H   1.41113143295492      0.43963278719477     -2.74599574176092
  H   3.02734130624899      2.71398153158668     -3.13150574651064
  H   5.01360190990549      1.42212148219275     -1.94413449591347
  H   8.11472384377856     -2.92896236617416     -3.53010900621688
