24
Coordinates from ORCA-job 25228optt
  C   3.20279615291293      1.25121416494496     -1.08210918340909
  C   2.43735376918367      0.26401390306026     -0.22203236345386
  O   2.54977800421593     -1.05705586438181     -0.69913252490583
  C   2.80853656525282      0.34932754185112      1.26023124895912
  C   3.99584639226335      1.04565188068743      1.76740125527704
  O   2.70721003273500      1.64549013321499      1.81430370258335
  C   2.19650379401963     -0.71029193809546      2.12264075088206
  C   2.71990980199133     -1.93955995842600      2.33762352818441
  Cl  4.24001137063919     -2.42336919489390      1.67562169689155
  C   1.96081227295532     -2.84151316259610      3.16324407406758
  O   2.42518718477898     -4.06783050155989      3.39439418916431
  N   0.83447956026610     -2.53274679468280      3.70714430800375
  C   0.28789057915507     -1.28369118472624      3.53121997205358
  O   -0.74215508873598     -0.90013406179100      4.02281008013451
  N   1.01998957210290     -0.40461921745122      2.70251064254686
  H   2.79003723605481      1.24078665813833     -2.08916286001568
  H   4.25656250218425      0.96890013227089     -1.14308079476791
  H   3.12977382594493      2.26201925983159     -0.68075256872981
  H   1.36824105477758      0.49167579029461     -0.27374094876236
  H   3.48064421958876     -1.30163011319272     -0.74846624794379
  H   4.68888623378396      1.50121409436572      1.07106285695585
  H   4.40048794886292      0.74993554764463      2.72875192679503
  H   3.26348431435491     -4.20417745830875      2.93374371552690
  H   0.65873270071160      0.53739034380137      2.62377354396243
