28
Coordinates from ORCA-job 25227optt
  C   1.24096621680212     -0.65370861581347     -0.20105147355813
  C   2.59836768770659      0.05660790345200     -0.15122161490661
  C   2.66501271162007      1.17623643465603     -1.18215886159106
  C   2.83141985303563      0.56263090352013      1.25444663487375
  N   2.45608751830586      1.79875000762257      1.53238140143566
  C   2.59153862349968      2.29537984591887      2.77416871797759
  C   3.11340805197420      1.54029644730565      3.78958008520535
  C   3.42096675450165      1.73986041751548      5.28165359644804
  N   3.13518005760677      0.38239649843629      5.81482195269911
  C   4.03099761023184     -0.31710135867999      4.85975693543143
  C   5.31848308003670      0.46511943964182      5.13411749202375
  C   4.94818357539929      1.71071844836002      5.39364057273239
  C   3.51052898989356      0.22682329479509      3.52373891659018
  C   3.37640467685773     -0.27288726808420      2.26045620751786
  Cl  3.85538559827390     -1.90782012530299      1.92245356496103
  H   1.06193837155136     -1.06107719841573     -1.19710467505399
  H   0.44629389606511      0.05928605029876      0.02769394063813
  H   1.18905599128168     -1.47194389591839      0.51861626222281
  H   3.37572927232876     -0.67575394159793     -0.37719095665071
  H   1.87707710149510      1.90756694133260     -1.00726925545716
  H   2.54404607281254      0.76117688959252     -2.18372973476738
  H   3.62010925390616      1.70016682357856     -1.13572543466310
  H   2.26088423109325      3.31769896902898      2.92059118926709
  H   2.90152538109070      2.54652994688925      5.78871201282583
  H   2.16800653513646      0.13791457127635      5.61033699038685
  H   4.06757495138375     -1.39596854840691      4.96553365889261
  H   6.31281778135388      0.05547407326447      5.05020313628294
  H   5.56701015475558      2.57462704573415      5.57954873823572
