30
Coordinates from ORCA-job 25239optt
  C   0.72384006037272      0.76183982717537      2.54794678149379
  C   2.24350543298223      0.82302808316521      2.46881183700280
  C   2.82254059171899     -0.27790687491966      1.59033489318547
  C   4.33920194458725     -0.22842042410403      1.50656228849417
  N   4.94103358131387     -0.45540128901071      2.80516231733245
  C   6.19862782729343     -0.42803981947939      2.93565299751522
  S   7.24056147595261     -0.09321472357290      1.51829787698189
  C   8.85984058429183     -0.25414052891535      2.13120962685968
  C   9.17886786184221     -0.52281533464179      3.47103393219706
  C   10.53152372310586     -0.68574790463317      3.77050802237320
  N   11.52160009578503     -0.56310013423764      2.89628955270230
  C   11.19026723112817     -0.27670480181382      1.65502424363053
  Cl  12.48172055461135     -0.10656967705351      0.51634405820863
  C   9.88940875924111     -0.11963245835131      1.20822276472985
  C   8.13639358501890     -0.64343182198855      4.48825935648622
  O   8.50739653318269     -0.83511565615598      5.77951249232108
  C   6.82133229946450     -0.61237725239293      4.23025874582822
  H   0.32399052735085      1.54864039602679      3.18814092383797
  H   0.39505533485643     -0.19745279101176      2.95238766565374
  H   0.27529006512250      0.87449588564496      1.55865399141779
  H   2.67668673656012      0.73703501134621      3.46740280533625
  H   2.55555374420576      1.79577576389174      2.07551329774739
  H   2.41123083671598     -0.19881567117051      0.57970968103977
  H   2.52488443511491     -1.25441243923912      1.98249683868134
  H   4.65356393377580      0.75192581831048      1.11862500548151
  H   4.70422521699089     -0.97965875033025      0.79340250862653
  H   10.84985955840923     -0.95561900754812      4.77195419874241
  H   9.68650627077969      0.09151576492711      0.16776627003686
  H   9.39803490967973     -0.51041933282030      5.94019360322713
  H   6.12845628854527     -0.72125985709707      5.05432142282873
