24
Coordinates from ORCA-job 2523optt
  Br  1.08075686183494     -0.28654593573121     -1.12435608795408
  C   2.89590291514439     -0.16733901469683     -0.69149662212423
  C   3.48737956675889      0.99948543405043     -0.37917994380038
  C   2.95253100796062      2.40800341718832     -0.26668933095602
  C   2.37033771540144      2.67549036812004      1.12046823113561
  C   3.42043244796783      2.41915181869018      2.21632365022166
  C   4.84496184653973      2.75562663507540      1.80559684486774
  O   5.67812662870085      3.15664192060511      2.56682201519535
  C   5.14458458906759      2.51353751488576      0.31709264456401
  O   4.13414038729575      3.20058578231111     -0.41586299288133
  C   4.86834933730783      1.07347087677256     -0.03101598819071
  C   5.61096899704299     -0.05162786185528     -0.04071969539743
  N   5.01569351506545     -1.23951548097393     -0.38517913812894
  C   3.67109318182203     -1.41759798443958     -0.71568445753346
  O   3.24366890228088     -2.51185127571567     -0.99218867470007
  C   7.00619934321354     -0.08376659769180      0.27807615907093
  N   8.12564415265935     -0.11897614825406      0.52427326065458
  H   2.25659601149293      2.66818817637943     -1.06176978143415
  H   1.48572886482586      2.05780934701939      1.28325783497957
  H   2.06041888845863      3.72062857098735      1.14028864244838
  H   3.43707019526815      1.35326269295815      2.46947429369905
  H   3.19430348981079      2.95731277614475      3.13460326102138
  H   6.12909549902840      2.89166182056207      0.05280241746573
  H   5.56801565505108     -2.08663685239169     -0.41293654222318
