27
Coordinates from ORCA-job 25245optt
  C   2.24094110465978     -0.93936943495798      1.10895735565802
  C   2.48483216566637      0.19405002764951      0.12835348311973
  N   3.08154722425624      1.36615078209025      0.79049454375664
  C   2.20743613747870      2.29357982303758      1.36854101780831
  C   2.41924930855668      3.45229227514339      2.03420895943026
  O   1.17068373304578      3.93938427879965      2.38157775686380
  C   0.30740791875356      3.04447097153839      1.90464834202132
  N   -1.01608635777688      3.25201944339443      2.16366530660457
  N   0.84206099824510      2.04382102189053      1.29010521593684
  C   4.42533851679416      1.48447742250114      0.92244226760696
  N   4.92772554791146      2.53617310903663      1.50925214619608
  C   6.28733488762133      2.63996595029101      1.64580305278336
  N   6.95335359727696      3.57950612617325      2.17494615619996
  N   7.03442597838339      1.55442135188675      1.12659121060908
  C   6.41372237584439      0.53013272215918      0.53637679513725
  Cl  7.44965768016794     -0.71174463623923     -0.05852632376506
  N   5.14938789133676      0.42058507101085      0.39575997561046
  H   1.76480323024734     -1.77860861115815      0.60102454489386
  H   1.58554753425208     -0.60716668147483      1.91402808222864
  H   3.18465523788206     -1.28289507829989      1.53322940147443
  H   1.55073250199225      0.52781782514716     -0.31253245683502
  H   3.15880736127960     -0.11478240017198     -0.66354787958821
  H   3.27119242491979      4.02984462380399      2.31696972301526
  H   -1.28559952763602      4.21204287698997      2.30688169909911
  H   -1.63899837351834      2.71772893549234      1.58023302463692
  H   6.31967153505633      4.29903999464996      2.50917488874485
  H   8.03916936730314      1.59706220961611      1.20934171075256
