30
Coordinates from ORCA-job 25251optt
  C   2.95977748844064     -0.11918990610229     -1.60895606096756
  C   2.23315607404127     -0.30923730566137     -0.28042231575014
  C   2.94167100709110     -1.24615719989517      0.66341694333311
  N   2.36683734227262     -2.05170303296366      1.46290218991839
  O   0.99147703389086     -1.94748783556965      1.44080577921428
  C   4.42480315952644     -1.36412938419602      0.68771627146146
  C   5.26734050655335     -0.32300509996527      0.84682835370027
  Cl  4.72485749407371      1.27794032029737      1.09621505267163
  C   6.71819391965450     -0.51924001010142      0.84049548811655
  N   7.07736641887557     -1.85030699528145      0.69227048061347
  N   6.26857495118734     -2.90869857442893      0.55930924897023
  C   5.00512771994404     -2.68101014305919      0.55491664206456
  N   7.53722380045738      0.44788224145468      0.96100425742487
  C   8.94755023115233      0.14290030178453      0.93690228438136
  C   9.74213848770808      1.41467628316836      1.05131848741084
  C   10.27136915367793      1.86029083019266      2.33775763089618
  O   11.11202053127955      1.25654414506842      1.36433323511137
  H   2.35757710636308      0.49891694833577     -2.27370948185749
  H   3.12769023717465     -1.07759292058146     -2.10266413063686
  H   3.92425234468472      0.37066889323004     -1.48069794501541
  H   1.23807919692782     -0.71757450013535     -0.44980314400304
  H   2.09395717733947      0.65265415882068      0.21732577271829
  H   0.70936478673269     -2.60704177067875      2.08160702143664
  H   8.05611068653439     -2.08691108408879      0.69149418366239
  H   4.35507978526244     -3.53869915901209      0.45439231808479
  H   9.23617494069199     -0.36232731606432      0.00145001323795
  H   9.24309447312868     -0.51978180703630      1.76469063243290
  H   9.52841027291729      2.16277616116659      0.29377817699303
  H   10.08015490172147      1.25733322431293      3.21922332299578
  H   10.45256877069441      2.91451053698947      2.51109929138016
