28
Coordinates from ORCA-job 25253optt
  C   1.00641174220534      0.36380559297227     -0.23593478299638
  C   2.49238156514994      0.09019473709277      0.02216672222781
  C   2.81519939681044      0.05079106974510      1.51762637416777
  C   1.91895557279020     -0.84813993656525      2.33449198759171
  C   1.88752891899166     -2.18642901919102      2.12339811931434
  C   2.69039643709155     -2.87057792645412      1.03243448849918
  C   4.16900210536738     -3.03267984774306      1.36192584926375
  O   2.51748983452722     -2.36160889450688     -0.29590406134985
  C   2.88617179331355     -1.14384010772013     -0.76191006598607
  O   3.37273895054175     -1.07026892698877     -1.85092489260794
  C   1.15199028762233     -3.10602779585990      3.00919331586281
  N   1.30501726908242     -4.35564533831524      3.16645814403924
  S   -0.18848475176963     -2.46988554274087      3.99176970151925
  C   0.13559118329832     -0.78130446664341      4.01371414179287
  Cl  -0.91107680175236      0.10749609358455      5.05111782565356
  C   1.09428142882448     -0.17015488548249      3.30511669330669
  H   0.69584004138386      1.26240364543317      0.29993658966675
  H   0.39016606237920     -0.46857572362453      0.10532922742436
  H   0.82759151130482      0.51341832477686     -1.29976476181713
  H   3.07934805197044      0.89365148941711     -0.42250284845775
  H   2.71628812267599      1.07022752361498      1.89088412707242
  H   3.86012871420780     -0.22455093005423      1.66593077038822
  H   2.26683136016975     -3.86624010172212      0.91178652742216
  H   4.67562657186070     -2.07329850873281      1.45086794530420
  H   4.65813524172373     -3.60828429036913      0.57698219495569
  H   4.27576569390284     -3.55879595091971      2.31185070612922
  H   2.03041330847039     -4.75017535492631      2.57356404004872
  H   1.21027038785580      0.89849507192319      3.42439592156434
