30
Coordinates from ORCA-job 25271optt
  C   1.13108701808326      0.09103871554592      0.06956059782601
  C   2.62539511116144     -0.06273489075674     -0.00395158803843
  C   3.26519307045622     -1.04742259447694     -0.64175466948215
  C   2.57559283606056     -2.16759153102982     -1.37734243292978
  C   4.75218984130040     -1.17976182095947     -0.74868028249423
  C   5.75346859716793     -0.89113543127947      0.32674797260293
  C   5.73036486346965     -0.02711744146181     -0.90626475309565
  C   5.33365999154350      1.39920885483773     -0.94392462822254
  N   6.06880746958775      2.12087912245330     -1.73405808896599
  C   5.82380008062113      3.46984431257683     -1.90627452479166
  N   6.48223976365420      4.26889708374517     -2.64196664042124
  N   4.73537303887579      3.98852715961952     -1.19598778201524
  C   3.97435358620259      3.23230504449871     -0.37901937083231
  Cl  2.69268493239062      4.10679952964997      0.37144822791675
  C   4.20865319110685      1.91217951445696     -0.18114762057859
  C   3.35805940594255      1.05685880988256      0.71814199169965
  H   0.57525593996952     -0.67072353673274     -0.46687463659805
  H   0.84218726484767      1.06637085368759     -0.33314366010184
  H   0.80424646744152      0.07652198922699      1.11325397226284
  H   1.49408084830640     -2.14337005735387     -1.30191807403947
  H   2.91884439196711     -3.13096208400105     -0.99164082829741
  H   2.84326826106297     -2.13934785108384     -2.43707796534238
  H   5.03205226782924     -2.01643516912170     -1.37622388067822
  H   6.59495175057814     -1.56327577929192      0.41299383477478
  H   5.42035191512471     -0.48202300292619      1.26419928450409
  H   6.53011041520257     -0.20571808651164     -1.61003067772889
  H   7.23351075001117      3.75737361626347     -3.09448520645768
  H   4.53744610825667      4.96993106667220     -1.32273946325436
  H   2.61587815395420      1.69761293706897      1.18860015639261
  H   3.95089266782360      0.66427066680130      1.54356073638644
