32
Coordinates from ORCA-job 25280optt
  C   3.81294181557019      0.38742283534686      0.68017220766732
  C   2.55425321904646      0.09343287088936     -0.15310383372043
  N   2.23990168399121      1.11407652477771     -1.13526297245560
  C   2.76649861039307     -1.22636359623569     -0.86235785041726
  N   3.24125311743295     -1.19380674330159     -2.04180854844518
  C   3.56423033517089     -2.31418503388381     -2.81567083429635
  S   2.71244141816734     -3.83166653610413     -2.37193334596128
  N   2.32917242059486     -3.61209764854222     -0.77671253448759
  C   2.43036374801950     -2.50130472225324     -0.18974359527355
  Cl  2.03565655834860     -2.46513167788466      1.50316351942364
  N   4.37354076642195     -2.16324214903335     -3.76369216296510
  C   4.86806608773869     -3.20211269361302     -4.66500331172007
  C   5.76942712502000     -4.18414318335386     -3.91587575543216
  C   3.73777579763484     -3.92767916230442     -5.39844160866114
  C   5.71392084438320     -2.41338370926297     -5.69293879641831
  C   6.37029278650344     -3.24612654263737     -6.69507587114782
  C   6.90512122143858     -3.93908115704297     -7.51341714850169
  H   3.67736367822683      1.32439821919799      1.22126777173258
  H   4.66941646511954      0.48935784631002      0.01158691999533
  H   4.02164756113061     -0.39781261837942      1.40763470213912
  H   1.70123632117346     -0.00933538702376      0.51943221982936
  H   2.90775770492817      1.07826359729223     -1.89806482250210
  H   2.28284532908872      2.03308585276261     -0.71295416226152
  H   5.21125530199535     -4.75596526265027     -3.17562341203694
  H   6.57138366928124     -3.64612183569327     -3.40908228837652
  H   6.21406287411281     -4.88203261064630     -4.62595460204179
  H   3.21590779376918     -4.63486843343837     -4.75372162628201
  H   4.15411312125428     -4.49343443896288     -6.23277562133561
  H   3.01603482436317     -3.20982241259721     -5.79127371109162
  H   6.46366668568296     -1.84063047206594     -5.14352639012350
  H   5.06262835202620     -1.68860562118030     -6.18651393659321
  H   7.38582276197165     -4.54608409848573     -8.24272859823891
