32
Coordinates from ORCA-job 25288optt
  C   1.08710015487995      0.42972004642825     -0.23741241704243
  C   2.56943193752482      0.04243854037729     -0.17815860324250
  C   3.18339805202376      0.24320399272391      1.21172269333822
  C   2.86830686057796     -1.31423002101000     -0.80066076156635
  C   3.63560538975552     -1.30003660235484     -1.96655839752529
  N   3.99470655325668     -2.37950160916521     -2.63325828083031
  C   3.61808394287597     -3.57482845350673     -2.18855204558272
  C   4.11498744803291     -4.72745850796363     -3.04534193764144
  O   4.84317123179150     -4.31961372583144     -4.08330826117238
  O   3.89495576669683     -5.88202777617283     -2.83439387490067
  C   2.84616753850675     -3.69900447282071     -1.03527501306974
  Cl  2.38912058314892     -5.26960132182425     -0.47480910932321
  C   2.44697647825984     -2.56157836608792     -0.31609437870103
  C   1.58070113626646     -2.65358359234677      0.94013959288614
  N   0.24980254504754     -3.20882933140077      0.75864692187496
  C   2.26897592008812     -3.37011716353541      2.11555283584482
  O   3.63663819480046     -3.03861743952512      2.22478541978945
  H   0.97352783847858      1.47413009291181      0.05676448583117
  H   0.46339054288256     -0.16425952341595      0.43056603659199
  H   0.69755232675010      0.31976229075691     -1.25028298352003
  H   3.08151083629152      0.75601050126209     -0.82886384545308
  H   2.69809306241677     -0.34541887324026      1.98806974675996
  H   3.10127153972210      1.29524440517373      1.48965540322601
  H   4.23818863067845     -0.03129322994136      1.21295387090422
  H   3.97886958573491     -0.35451881873910     -2.37227173494259
  H   4.88258507182390     -3.34567468958902     -4.04829322398694
  H   1.43209390462846     -1.63450703472850      1.27125264997549
  H   0.27645504701889     -4.15361303676474      0.39742245128760
  H   -0.30529962124204     -2.64516293012526      0.12715753382017
  H   2.12143003052160     -4.44793130754050      2.04854033406558
  H   1.78476253968327     -3.02878551524776      3.03012962076070
  H   4.14143893107686     -3.57231652675584      1.60317527154426
