26
Coordinates from ORCA-job 25297optt
  C   1.05226976535303      0.07894470936889     -0.51539220227422
  C   2.44523996037973      0.05528539791223      0.11329448930127
  C   3.51171376766534     -0.13076076551036     -0.97446888733946
  C   2.49584200946365     -1.08366039722719      1.12483663411333
  N   3.68303309993027     -1.01165407090320      1.98398579957467
  N   4.17828771023190     -2.17120366190977      2.35325193917776
  C   5.12629880320782     -2.19830667599785      3.23935766922346
  C   5.63047455217332     -3.49792371282991      3.59206248052501
  N   6.03367484026778     -4.53286686926390      3.87333658012343
  C   5.70357604576934     -1.01845647960671      3.90691563368921
  O   6.57767579337491     -1.09140197532095      4.74162953434244
  C   5.09116285203515      0.21219762440969      3.43027053536060
  Cl  5.68313241809812      1.67685797082524      4.08580211394297
  C   4.09965057477887      0.19393096182140      2.49164056743232
  C   3.46250534894557      1.39157791062835      1.94635906656586
  C   2.71290553599416      1.34139753732773      0.84799965991318
  H   0.84020312966769     -0.86944904422536     -1.01221408561033
  H   0.98905594262957      0.87213095009673     -1.26152424881788
  H   0.28172300705113      0.25487209936230      0.23696375996179
  H   3.29371664532235     -1.02207982025365     -1.56589210268247
  H   4.50582640913493     -0.23549081260995     -0.53742891661956
  H   3.52569057671845      0.73016288631915     -1.64407204266018
  H   2.53673690352227     -2.05467178171485      0.63560292876316
  H   1.61094497949847     -1.04903573182628      1.76742667981275
  H   3.67964331102920      2.32360484536408      2.44604208483118
  H   2.30501601775696      2.25599890576416      0.43021432934968
