29
Coordinates from ORCA-job 25291optt
  C   1.00061712330994     -0.15384843742293      0.37013650313667
  C   2.47272095127962      0.00587850613199      0.13937009549595
  C   3.07764804411168      1.25851749409164      0.12456636141724
  Cl  2.10001450010526      2.66982482808255      0.36373033083909
  C   4.45275532376236      1.37497744419479     -0.09763390056869
  C   5.16347698332548      0.21029201709819     -0.30651578782468
  C   4.48712035051662     -1.01478139424335     -0.27910494225330
  N   5.14847634576845     -2.19354375536860     -0.54331268245776
  N   3.18231015845016     -1.10651213351513     -0.05324148698245
  C   5.12210044096602      2.73518352498446     -0.06649574776804
  O   5.08976630770449      3.27617659641850      1.24501410608538
  C   6.55426068740818      2.76263621076706     -0.58422602869210
  N   6.63061605422291      2.35402252411241     -1.97361075880755
  C   6.38757603851201      3.40518844927529     -2.94159306406800
  C   7.75495244976962      2.87447243275614     -2.72314693157899
  H   0.43114491114392      0.37629722985950     -0.39501938784676
  H   0.71043544448986      0.27130910982813      1.33236425430260
  H   0.74852254238282     -1.21030607242344      0.34593637634121
  H   6.21729059075702      0.23695026075038     -0.54409783370600
  H   6.14116195130866     -2.21671797317458     -0.38578244485018
  H   4.64799621346386     -3.02648657030606     -0.27773112398098
  H   4.52409878108968      3.41767214938289     -0.67576202202675
  H   5.37362686038047      2.59653392409140      1.86544845032134
  H   7.18266950713418      2.09853608551858      0.01720953068337
  H   6.92704356539427      3.78567379342398     -0.43286883408465
  H   6.17914206138834      4.39793889563531     -2.55461584758867
  H   5.82323094900757      3.11916738089245     -3.81879346653363
  H   8.45311484798981      3.51491519371845     -2.19421471634328
  H   8.19611001485666      2.19603228543996     -3.44100900066038
