29
Coordinates from ORCA-job 25295optt
  C   2.93007677370295     -0.86325728175958     -0.67184263035472
  C   2.39867706758591      0.11066607332188      0.37006644834401
  C   3.04670135787447      1.50126142886795      0.24255631865277
  O   2.57359186516678      2.05622102593416     -0.95608464522817
  C   2.54815904139428      2.44604016379330      1.37138388446996
  N   2.80136530636744      2.09766555997331      2.64262930161407
  O   1.93647129127439      3.45274489568986      1.06770840797864
  C   4.59231636834378      1.51160483909051      0.21605055057259
  C   5.45341681521090      0.76677006841166      1.04259173550934
  Cl  4.91445276448325     -0.36684730798795      2.25855078947692
  C   6.82294916251553      0.87747597569603      0.92559915117792
  C   7.39011195640954      1.73046211591981     -0.01332809447708
  C   8.80763050743693      1.85379052838295     -0.13661974224583
  N   9.93586219591816      2.01124743301096     -0.28534766539336
  C   6.56688777036733      2.48928858552979     -0.85852688067444
  N   7.09764441980361      3.29722454177770     -1.82232079778576
  C   5.18349555381158      2.35282457651088     -0.71369541785612
  H   2.35405683492749     -1.78822880343018     -0.65944820177268
  H   3.97452667877662     -1.11594488607802     -0.48173772479047
  H   2.85802190066228     -0.42779685418887     -1.66844493728125
  H   2.51052039723460     -0.29688077518679      1.37100921504163
  H   1.33256829116537      0.28404565310884      0.21085544711203
  H   2.09423704704624      2.86508576915109     -0.70219211312259
  H   3.32924313168968      1.27473837526544      2.88034535703616
  H   2.49794018954220      2.72110030030922      3.37231658114696
  H   7.46411917486697      0.29005919823965      1.56765168086364
  H   8.07848590114375      3.52355315698244     -1.78276539911755
  H   6.50100882524220      3.97782295877384     -2.25860406017326
  H   4.53546141003572      2.91326268489009     -1.37135655872337
