25
Coordinates from ORCA-job 25294optt
  C   0.55369301817825     -1.72030975886294     -1.42223065341564
  C   2.01374318417189     -1.80214719700301     -1.82875736559205
  C   2.94548014576002     -1.27756697595335     -0.77172482414118
  O   2.59587027539787     -0.80127685798674      0.27104617663727
  C   4.42506555691016     -1.36259975759380     -1.09554324968167
  C   5.14316331649097     -0.32446803138102     -1.54029042251819
  Cl  4.41455297971529      1.20781159599793     -1.82948514182456
  C   6.56574320741936     -0.45754950315322     -1.79701373264820
  C   7.14070753971814     -1.65171199457528     -1.53547760207317
  O   6.42729854378117     -2.71075763793219     -1.08700574515453
  C   5.06631524077300     -2.65683761322624     -0.88738499742945
  N   4.41199333734276     -3.67481997828801     -0.53905152134188
  C   8.56995087749668     -1.93235514334858     -1.68834350245495
  N   9.14742560925981     -3.02829610217996     -1.39467394381090
  C   9.38529135648349     -0.83644486894918     -2.23348453049059
  N   9.00121659413703      0.33533829455495     -2.55710843852490
  S   7.46574858041673      0.89730153914921     -2.41628897298225
  H   -0.08542655554114     -2.09323144274253     -2.22129294732435
  H   0.27139182848527     -0.69210459181970     -1.20012957330371
  H   0.37384732435954     -2.31264067277875     -0.52637584052675
  H   2.21651215306047     -1.22697598224057     -2.73970845105359
  H   2.32656732300746     -2.82828391751162     -2.04230031555222
  H   5.00514084248153     -4.49474041724614     -0.43181564666602
  H   8.48232703022499     -3.70925315727824     -1.03043876314334
  H   10.43738069046917     -1.07307982765099     -2.37111999498316
