32
Coordinates from ORCA-job 25309optt
  C   1.20072501007887      0.30630979916240     -0.75616112159969
  C   2.65954731505726      0.35541333791176     -0.31874637635283
  C   2.90719943918117      1.21613442327731      0.91858356674699
  C   4.36961531354436      1.07223547392234      1.38299944359410
  C   4.82526717885611      2.19863219018403      2.34464184349794
  C   3.58691924707651      2.88966049135781      2.95213150167704
  C   3.06925464215247      3.66476141833348      1.72294623981313
  C   2.45131649946565      2.67256806799307      0.70418982626581
  C   4.37102793932843      4.20313513244732      1.17657065305720
  C   4.61682123736773      5.30570586188859      0.38710253928479
  C   5.92258549682827      5.55545367660199     -0.03272772309527
  Cl  6.22801960691837      6.95015760484898     -1.00127105075839
  C   6.95459054227566      4.69599321210017      0.33062194629897
  Cl  8.57747493032288      4.99250670074698     -0.17732080207191
  C   6.69550539453137      3.57500546822875      1.11847976657950
  C   5.40392554419730      3.34195006171053      1.54095379204341
  H   1.06189638981976     -0.39149876513282     -1.58215831654968
  H   0.84873167638119      1.28389110885131     -1.08757218712726
  H   0.55908164436041     -0.01837436882483      0.06629484243677
  H   3.27874778919273      0.73716246571349     -1.13714833768900
  H   3.01275527462833     -0.65941574721487     -0.11241474275615
  H   2.28153132953462      0.80904825256840      1.71984101481567
  H   5.03445431808566      1.05045563520909      0.51502368997205
  H   4.47104385793737      0.10144565109792      1.87345618138302
  H   5.52159421454112      1.81510282793208      3.08950019289610
  H   3.88883668838691      3.58438954257025      3.73663479804807
  H   2.85878740793816      2.19204730346627      3.36497404968341
  H   2.36043431316836      4.45401628419305      1.97075401604820
  H   2.70150404954450      2.99645751437168     -0.31079358398635
  H   1.36290014334548      2.70598864821230      0.77992949717586
  H   3.82906046160613      5.98581783883984      0.08906700979451
  H   7.51484510434679      2.91984288743132      1.38561783087396
