30
Coordinates from ORCA-job 25306optt
  Cl  6.05782916633903     -1.30019341212738     -0.03165873649608
  C   4.58920379585031     -0.55062919162547      0.46144046900568
  C   3.40059494916304     -1.22095277779001      0.51521069930952
  C   2.23383722247766     -0.49676462817761      0.90908701076368
  C   2.29266608072506      0.81399397539225      1.23483787410000
  N   3.49454462953562      1.46385483715084      1.18384581829842
  C   3.83054172946493      2.76806841311066      1.45307670059747
  C   5.17794489339039      2.84738543211262      1.21718347857255
  N   5.69148436072061      1.65520477620410      0.81479363518339
  C   4.66744954055200      0.82739055465207      0.79915238140906
  C   3.27446470139007     -2.66828809450927      0.10859262669118
  C   3.02972405227946     -2.76845060717461     -1.40130093235694
  C   2.85511684509408     -4.22243720816184     -1.82735302229375
  C   1.76362497197570     -4.89266407465008     -0.99818847691331
  C   2.05893832289455     -4.73013889298928      0.48583571431733
  N   2.17061343991700     -3.31207608204783      0.81678340762623
  H   1.28981400546487     -1.02041818818636      0.94109410818130
  H   1.43872172135968      1.40304050975579      1.53582307143547
  H   3.10030961892409      3.48805989427447      1.77655465006176
  H   5.80349130105808      3.71974373264221      1.31665158604054
  H   4.22687767709472     -3.17294961441660      0.32579144185591
  H   3.86467472638514     -2.30230212463326     -1.92732973962741
  H   2.12552502462098     -2.19841904246003     -1.63528091451210
  H   3.80041415459825     -4.75497662125573     -1.67936383349848
  H   2.62237813495483     -4.27860955388052     -2.89206503565726
  H   1.68669597314575     -5.95313665180152     -1.24460816332517
  H   0.79832268363021     -4.42803198513647     -1.21599808343098
  H   2.98466432872085     -5.27802578173177      0.72540142883727
  H   1.25665591779818     -5.15927620960212      1.08682013877227
  H   2.30287603047482     -3.20100138293720      1.81617069705244
