29
Coordinates from ORCA-job 2530optt
  Br  1.00750087263564     -0.08316178587052     -0.22177607781524
  C   2.89890900487193     -0.16521482511344     -0.13246088503859
  C   3.52717227472686     -1.34861614635296      0.24909040105476
  C   2.79736955866004     -2.61548464630650      0.62826202883975
  C   2.86915882463599     -3.61960400916621     -0.54247409734342
  C   4.15851081340489     -4.41891071655891     -0.22637791242516
  C   5.13034763357022     -4.60989261098308     -1.36346304076741
  O   4.88787783864331     -4.37146649235953     -2.51213095618756
  N   4.79173943198478     -3.81258653851558      0.96016070252547
  C   3.62020040480436     -3.34135028879967      1.70539396757998
  C   5.64654041503462     -2.66039401457430      0.66485326810860
  C   4.92371456181184     -1.39081272399980      0.24768002854700
  C   5.65993781035871     -0.26655614164114     -0.10258116302956
  C   5.02463406641718      0.90638045552511     -0.45676293121962
  C   3.62962188182948      0.97766074541051     -0.47652096669901
  C   2.99908176822191      2.20555780564129     -0.84426203031460
  C   2.49969720989108      3.25098967899166     -1.15150567523181
  H   1.77827257727723     -2.40257888053015      0.93720692540506
  H   2.93265853049914     -3.12909299696163     -1.51261231497861
  H   1.99954618702084     -4.27585601743044     -0.55272209353399
  H   3.88365449147956     -5.44034396356619      0.06765025941021
  H   6.10754560663343     -5.03580014060610     -1.06376090571949
  H   3.91936671790992     -2.70425121547712      2.53772960736355
  H   3.07253414433884     -4.20198989161668      2.09499123477500
  H   6.37412395285500     -2.93006789345604     -0.10342926283208
  H   6.22786649191671     -2.44569921595016      1.56615438038986
  H   6.74303697801667     -0.31263640808088     -0.09819089082476
  H   5.59188977278230      1.78548345122185     -0.73040409270656
  H   2.04449017776745      4.17329542712667     -1.42273750733178
