23
Coordinates from ORCA-job 25304optt
  Cl  0.87340562793168      0.08861529604950     -0.15022968098294
  C   2.58134795321913     -0.03598806834163     -0.03415440123728
  C   3.37035074785064      1.06701071622349      0.06918488896036
  C   2.80511588750368      2.45063457119902      0.05402224576039
  C   2.53529492627395      2.94277648847812     -1.35446335054950
  O   2.74930742365098      2.31011282023122     -2.34609203056450
  N   4.74309985216259      1.01053158631111      0.13718663911846
  C   5.24404332588531     -0.16037869450307      0.08170131948712
  O   6.57627381401587     -0.40942648434370      0.12059632971320
  C   6.69349655256297     -1.77042971310675      0.03855113724998
  C   5.48008723383373     -2.35090458046116     -0.04344053908443
  N   5.71789636090045     -3.68857661065139     -0.14336113444279
  C   7.08998707281340     -3.80411379812931     -0.10672348949012
  N   7.70875499823939     -2.64743596873339      0.00118405429400
  N   4.52943193852309     -1.34206090797982     -0.01960295944394
  C   3.12578201982029     -1.38208290273226     -0.07336129027004
  N   2.43475445795258     -2.44689026152137     -0.14905093259846
  H   3.51891407378254      3.13980676902015      0.51089193458281
  H   1.86930544961180      2.52068865240388      0.61271821875117
  H   2.11729891981565      3.96559514741246     -1.41115103427752
  H   5.06210242756308     -4.44683155016664     -0.21969028867921
  H   7.57089477188937     -4.76564999655859     -0.16385077069641
  H   3.00605416419776     -3.28600251009986     -0.16686486560035
