25
Coordinates from ORCA-job 25316optt
  Cl  2.24709276618765      1.53931150186573      0.24799543252695
  C   3.44529408967340      0.29155655927844      0.26812472158119
  C   4.40559791299616      0.30329524617196      1.27037161668036
  C   5.34107226008709     -0.71220767340727      1.25073099515637
  C   5.29761660778467     -1.65791975491090      0.23731059943897
  C   4.27858936630789     -1.58703742397542     -0.72003068674424
  C   4.08430315731122     -2.61748715039626     -1.81820257681041
  C   3.63217163000502     -3.95698704982602     -1.23685026022396
  N   2.45116603166840     -4.27944591877220     -0.95123768136367
  N   4.71854292494938     -4.80178961422947     -0.92650053601643
  C   4.86452154139894     -5.42852381622854      0.31873770877951
  O   4.02228837169277     -6.06075183157712      0.87729879670962
  C   6.19646372008706     -5.03918187334364      0.98219311859859
  O   6.05776156917066     -3.63045071712709      1.24096001901265
  C   6.25087180913147     -2.80507883210783      0.19560594459568
  O   7.02042849079080     -3.01961106573460     -0.69966139739800
  N   3.36802084180258     -0.61516293990244     -0.68026992612438
  H   4.40145737855523      1.07023584062026      2.02977378665575
  H   6.10147537700083     -0.77471135917894      2.01865877028450
  H   5.01041354272370     -2.73927248549996     -2.38297797900236
  H   3.31569899549435     -2.23725037420717     -2.48617981521573
  H   1.81045912409447     -3.51751109195281     -1.16590472391655
  H   5.59175484829171     -4.49346846430078     -1.32457761019776
  H   6.28370752078169     -5.53041601665519      1.94468835187318
  H   7.06723012201279     -5.23313369460270      0.35594333112016
