27
Coordinates from ORCA-job 2531optt
  Br  1.11428096015314      0.40195312577474     -0.45066488391795
  C   2.96519301528578      0.14195549901801     -0.25086281364222
  C   3.56876044665194     -1.02747652067680     -0.52762577580950
  C   3.01245598086078     -2.32590831012195     -1.04518224604470
  C   2.24878492149560     -3.17417532389174      0.01216554787644
  C   3.13093360605497     -3.99834267466557      0.97925741487462
  C   4.32705176591935     -3.16649520346246      1.39982896916535
  O   4.27304908471647     -2.35255142660140      2.27299593196360
  N   5.51243679586215     -3.30412518160470      0.58941069596681
  C   5.46072594881640     -2.47372866424332     -0.64278685492734
  C   4.29702249630279     -3.03624818742644     -1.48526600055903
  O   4.37940479576804     -3.94040372216386     -2.26500247822939
  C   4.99569371944177     -1.07992540270850     -0.33504090020186
  C   5.71874640215083     -0.02778047282618      0.08196133527292
  C   5.06365179245948      1.23924430554828      0.37368467234769
  N   5.56855453579098      2.33842544167166      0.77712374740862
  N   3.67392350513719      1.21569290995218      0.17830769044539
  H   2.36124297030869     -2.18298128680585     -1.90838477697356
  H   1.58409960861750     -3.86225675673123     -0.50934152414700
  H   1.62941149873560     -2.49014191662317      0.59270550708759
  H   3.45928696464795     -4.91332298628204      0.48379991266523
  H   2.54788724234518     -4.26280693259644      1.85966042659967
  H   5.59821610165684     -4.27001156396476      0.28161492238879
  H   6.41966980891657     -2.54245359393906     -1.15109989661321
  H   6.78712863859954     -0.09261953495073      0.23850666810282
  H   6.57284395309636      2.25358507908999      0.89423572956160
  H   3.20154344020806      2.08289930123134      0.39199897933863
