29
Coordinates from ORCA-job 25325optt
  C   1.01780089649964      0.36490303145083     -0.24840982585015
  C   2.48930916238406     -0.00634375812797     -0.06439221798217
  C   2.94313840563940     -0.99302399297284     -1.09550406629506
  C   3.66573080281284     -0.69894384602251     -2.19363698902570
  Cl  4.21370828292978      0.88180209465689     -2.60248500707666
  N   3.99281116167812     -1.66707073807701     -3.09581559965444
  C   3.66983436221900     -3.01677885891056     -2.95812384756221
  N   4.13495515556041     -3.80517914857394     -3.83369311179290
  C   3.90698931800653     -5.23382806126948     -3.85549867939297
  C   2.81052288225550     -3.24022035314359     -1.75811315725877
  N   2.30777154769710     -4.52079742832709     -1.60081435834935
  C   1.97302493080528     -4.88172986090644     -0.41728167802562
  N   1.33037468693981     -6.03377364368377     -0.17986610338078
  C   1.06317101235696     -6.56489876292925      1.13627803344399
  N   2.50623128944790     -2.29357174893071     -0.93645770160660
  H   0.67809329625890      1.03084258613380      0.54552118041847
  H   0.39967348428245     -0.53342944601814     -0.23508902603886
  H   0.86793027381848      0.86627718003259     -1.20576441498750
  H   2.63096397140869     -0.46287659952085      0.91774858666318
  H   3.11147531236060      0.88751236174393     -0.10153702679922
  H   4.56252816824806     -1.44097249880207     -3.89806006122278
  H   4.51104375020070     -5.65296754455621     -4.65949782438676
  H   2.86052803848282     -5.47837986279320     -4.04602874778911
  H   4.18977187971411     -5.72100482283970     -2.92028111061648
  H   2.18735167489422     -4.27426034105159      0.46482733959774
  H   1.12449309542105     -6.59868651408035     -0.99005158563799
  H   1.24687617994637     -5.78560855698471      1.87388834321687
  H   1.70428596784680     -7.41775736603589      1.36841583570032
  H   0.02161100988441     -6.87423349946014      1.22072282169152
