21
Coordinates from ORCA-job 2532optt
  Br  1.16994830993798     -0.27453283319813      0.43322439930508
  C   3.01394120041351     -0.10368789759286      0.19111404146793
  C   3.67879016550634      1.08069757943001      0.23080078924859
  C   3.08282535057214      2.39859475523499      0.34663347632828
  C   3.53539852879616      3.54394315173694     -0.26415590674359
  C   4.74848365153913      3.67010706192077     -1.11660645325879
  C   5.97806065126972      3.29704351119928     -0.32219912281253
  O   6.93386629013891      3.97754973071789     -0.17147375487478
  O   5.93812747174560      2.08136887540396      0.32743474536364
  C   5.12022777466670      1.02505473289108      0.04059009706955
  N   5.75106780061011     -0.05245185886978     -0.24879171993919
  N   5.04786493315445     -1.17407773225320     -0.34891607304469
  C   3.70524410290795     -1.36427637403286     -0.10066150869323
  O   3.19725204706164     -2.45951877909050     -0.15874756012402
  N   2.68941203583554      4.55496243571745      0.03277845869430
  N   1.74409016810232      4.09903087791337      0.78853569211589
  N   1.95961342840289      2.80736599581374      0.97937009360904
  H   4.86904869169209      4.69170567542962     -1.46529059570756
  H   4.67910693248045      3.00700762265892     -1.98459326633914
  H   5.58625338796940     -2.00224286412647     -0.56483985253787
  H   1.31237707719694      2.26635633309577      1.53179402087309
