30
Coordinates from ORCA-job 25337optt
  C   1.11878381122282      0.14617612442270      0.01492831162121
  C   2.60633303762779      0.42029202486072      0.02197459446342
  O   3.16532661143083      0.85273250694835      1.01307892405318
  N   3.25447653906246      0.14511794829088     -1.13627516044914
  C   4.67155664699877      0.32775490005567     -1.33208545180679
  C   5.27485413300066      1.72161343888826     -0.96888447955986
  C   6.38446385084958      1.02477783334554     -0.15504571777602
  C   5.63020639286726     -0.31416483393142     -0.28089762705223
  C   5.03015535086898     -0.08131275027259     -2.74049846620643
  N   4.05133405498146     -0.48415016306412     -3.55372993235628
  C   4.40411493261844     -0.82750045564585     -4.77254828053440
  Cl  3.14296045318064     -1.34847628981957     -5.83537204575062
  C   5.70838957317185     -0.78980147169519     -5.22846132424368
  C   6.65894311831170     -0.35673852114375     -4.31015492569693
  C   8.11200550367584     -0.26299319802177     -4.65615318924534
  N   6.31225489316517     -0.00322972585404     -3.07408502756710
  H   0.90663141963570     -0.59816791247305      0.78167464382644
  H   0.74796734810024     -0.20804593282153     -0.94515835312687
  H   0.59901948717354      1.06237094540669      0.29123694481169
  H   2.73470527657388     -0.20487246295921     -1.92655929893013
  H   4.58461654280570      2.28189719914427     -0.34576032551545
  H   5.59161632933080      2.32020811661157     -1.82118212287548
  H   6.51717746311289      1.39175997942743      0.85981092821304
  H   7.33921835922559      1.01563779529339     -0.67477737723935
  H   5.08247399470911     -0.57562114568998      0.61932847035595
  H   6.20132669842753     -1.16740034352341     -0.64223807865361
  H   5.96629616217077     -1.07855573438463     -6.23579300565562
  H   8.30392591752471     -0.55894883200432     -5.68516982130673
  H   8.68761181892763     -0.89996423562519     -3.98405695226116
  H   8.45525427924758      0.76060519623417     -4.50414585353570
