25
Coordinates from ORCA-job 25335optt
  C   1.16578169585616      0.20507462787841     -0.53043266020059
  C   2.56684457313281      0.11163381870069      0.10429659152886
  C   3.54118347414056      1.19608028712648     -0.44064898694791
  C   4.29362315743769      0.56513943540751     -1.64662684989050
  N   5.68469999748664      0.97472470969774     -1.69459369133366
  C   3.56591130722065      0.86583376900236     -2.90853637395410
  N   2.99401192343787      1.12790309690404     -3.86729395090182
  C   4.17515860355659     -0.90622120986876     -1.34295143596356
  C   3.26141396847452     -1.13609085634225     -0.38915674218451
  O   2.91058278745894     -2.32562774727864      0.07033121437858
  N   3.52367946379241     -3.45117008890916     -0.43452029677319
  C   4.41122930118646     -3.29746306944575     -1.34119657146236
  Cl  5.13888668467959     -4.72414925005554     -1.92866803242370
  C   4.87474856390235     -2.00123502835135     -1.94725253509052
  O   5.71955160011188     -1.93706941098585     -2.80814170705711
  C   2.46509146745170      0.14916113242173      1.56253357928735
  C   2.37024463511595      0.19557277950596      2.75434413230156
  H   1.24120227476110      0.22174059771187     -1.61822902208321
  H   0.68320028026965      1.12129495890355     -0.19338254661063
  H   0.55611283230122     -0.64417902553497     -0.22491166447332
  H   4.29941502561565      1.41158094256847      0.31022043755312
  H   3.01405436195581      2.11196698212179     -0.70128648851358
  H   5.76700007615493      1.95362841707440     -1.94583020126078
  H   6.18224885139585      0.42362841162721     -2.38854152380123
  H   2.28612309310297      0.23524172012005      3.81447532587685
