37
Coordinates from ORCA-job 25339optt
  C   2.13233299328686      0.65616069271507      0.93839472696125
  C   2.40300657125088     -0.10492413130686     -0.36369308201640
  C   2.83387092810693     -1.51521604995177     -0.08698746661123
  N   4.08165476082195     -1.79532916377173     -0.12965184575890
  C   4.61057463312991     -3.02914059819357      0.14547686388772
  Cl  6.35242156532190     -3.02458098837152      0.02893979665654
  C   3.95456954154488     -4.16185997619182      0.44837763351554
  S   2.20956302741821     -4.17027608899510      0.47566944502644
  C   1.76084175079415     -2.48398988035074      0.25655965152605
  N   0.55650668622810     -2.08650080244523      0.33371153264456
  C   4.57723660882620     -5.51461461312644      0.74706408084712
  C   4.74191217448521     -5.75833053321880      2.26703477860954
  C   5.66400195608019     -4.72381366341703      2.90575394455336
  C   3.42242997189707     -5.84200000831239      3.03104411914489
  N   3.77302465273928     -6.54703273642347      0.08359384184904
  C   3.88891123974449     -6.42796223367565     -1.36431479121602
  C   4.10783616795141     -7.90520498659332      0.47891820765986
  H   1.84511800596741      1.68394566081615      0.71808110091348
  H   3.02813716727891      0.67785904322252      1.56012578593542
  H   1.32415880623375      0.18453788369305      1.49497748348928
  H   3.20462431164683      0.37543611803147     -0.92207161211934
  H   1.49551742431429     -0.12098710977874     -0.96751005717972
  H   -0.09340851280519     -2.83321472006575      0.57588545104275
  H   5.59181096601054     -5.50205459135822      0.32080048962016
  H   5.25065972029519     -6.72123310384868      2.35048939416123
  H   5.24863681006834     -3.71732310892060      2.82454696501763
  H   6.64979498719826     -4.71974167263773      2.44103101521244
  H   5.78661680269533     -4.94918512251416      3.96612593416207
  H   2.98852601296197     -4.85046060519805      3.16740974948844
  H   3.59773730717985     -6.26452808234398      4.02167481313455
  H   2.68601081251314     -6.45877578456725      2.51450764940936
  H   3.61856804591298     -5.42522468540862     -1.69180470472654
  H   3.21049467095357     -7.13522998785874     -1.84043210192302
  H   4.91370616557270     -6.63704547386217     -1.70857308717156
  H   3.85512677578830     -8.09178599718270      1.52026618538773
  H   5.17436376347417     -8.13673007722834      0.32684464278733
  H   3.52410472711196     -8.59264282135899     -0.13226653392107
