27
Coordinates from ORCA-job 25331optt
  Cl  1.61174797573199     -2.18345517368081     -1.35617178476729
  C   3.05462390659445     -1.48193942906084     -0.76770709664405
  N   3.65164514679841     -2.09728705446677      0.24830409959025
  N   4.74635176621166     -1.55711967795728      0.69887541267790
  C   5.18902962124998     -0.43551785193620      0.11798235138599
  C   6.45650779762634      0.16807032900959      0.63310588399394
  C   7.64794175003447     -0.73195993650443      0.34240610681222
  C   9.08732765649241     -0.23329699558311      0.58497860401404
  C   9.23535541880436      1.23749797938381      0.20247492347735
  C   8.91530520352545      1.45317158945850     -1.29557966466135
  C   8.04518099214734      0.33784242056229     -1.91949642809040
  C   8.14410723326949     -0.94927632487125     -1.10347881303707
  N   9.49712202448617     -1.14066601264064     -0.51756871159157
  N   4.57355291063815      0.16004599767654     -0.90515944278283
  N   3.47398186740275     -0.37606677707125     -1.36332259755487
  H   6.36322095886566      0.30229238648923      1.71360666616743
  H   6.56722383999114      1.15030834242337      0.17475940242582
  H   7.51081333192344     -1.69833455308502      0.82612274089056
  H   9.53854651964681     -0.45340478522814      1.55310751119600
  H   10.25753669009177      1.56350556341607      0.40557737401003
  H   8.59161216442390      1.84559130578604      0.84275162523767
  H   9.85914087751979      1.49136653384461     -1.84028219860763
  H   8.45022665612627      2.42724864226573     -1.44887646232038
  H   8.38029320329510      0.14519882501261     -2.94066766680175
  H   6.99790871395003      0.64082579418016     -1.99387641836217
  H   7.75599136092287     -1.81251792061006     -1.64571219105026
  H   10.25870441222965     -0.78912321681272     -1.09215322560756
