23
Coordinates from ORCA-job 25342optt
  C   1.18306609385327     -0.51705794510646      0.71261926630995
  C   2.44212516238402      0.06866133255414      0.07530280624415
  C   2.22073609526526      0.44924535652089     -1.37892996005753
  O   1.23177332791848      0.17240475216661     -1.99157752576248
  C   2.91856648067048      1.26704042493732      0.84610795537214
  N   2.51846892196291      2.46117967816726      0.41694848876387
  C   2.89294524315884      3.51668992607930      1.12036899916875
  N   3.62860172977623      3.53841432294096      2.21141280279476
  C   4.03490233448298      2.35402679459709      2.64705305976668
  C   3.70186413820456      1.17674687864004      1.99659362050659
  Cl  4.24732259091215     -0.33433999423884      2.60736270643821
  N   2.43431463157806      4.75334474542436      0.62213887750442
  C   1.65390384410803      4.99588944214114     -0.45401903613928
  N   1.47634383719333      6.27926539095335     -0.55063682693658
  N   2.16237489705080      6.82708115423117      0.48789149290380
  N   2.73445155695318      5.93680113941996      1.18914761235801
  H   0.85073472613932     -1.38323870290016      0.14415064167088
  H   0.38301456934479      0.22257021336529      0.69933238895476
  H   1.37835044420313     -0.81677308139553      1.74168271051362
  H   3.24146064266448     -0.68106047355207      0.08061787543624
  H   3.05870581311002      0.98607509695999     -1.86094428356906
  H   4.64492792230902      2.33634544240363      3.54324494464383
  H   1.26404499675663      4.22768810569052     -1.09786861688571
