26
Coordinates from ORCA-job 25357optt
  C   4.54200536688383     -0.69766563822321      0.81214289683765
  C   4.87439624255932      0.18842337068436     -0.34762721619892
  C   3.92171293930705      0.70675962526508     -1.14945960185352
  N   3.82453290921590      1.54928241667310     -2.24338279767295
  C   4.80757355699736      1.98070534257672     -2.94366320959535
  N   6.09368168905550      1.49110242703595     -2.85993083674722
  C   7.17517642971480      2.30541633092064     -2.99906032286800
  C   6.99847036290923      3.44285889585819     -3.71321604263343
  Cl  8.20830337819340      4.63067503687194     -3.96951962777833
  C   5.67107934999124      3.67223887227432     -4.22141018670899
  N   4.63071755068698      3.00406333261789     -3.85753212732323
  C   8.38022428059489      1.98378781722713     -2.14610482564860
  O   9.49567570056724      2.13155140408552     -2.58283039475107
  C   8.13628920891367      1.71962837629389     -0.71713410874219
  C   7.12331405084396      1.12229172577332     -0.03490322992915
  N   6.94694742810615      1.27122219705052      1.30810796035992
  O   6.26557411471769      0.25123753741481     -0.61803188779226
  H   3.50105793780911     -1.00971263836553      0.76774889233500
  H   4.68415032742660     -0.19459792967501      1.77254217482075
  H   5.16985703867440     -1.59131029813555      0.79551545136767
  H   2.93336057200875      0.42033336482387     -0.80367563347995
  H   6.22465051485980      0.64593290348889     -2.32541193271496
  H   5.52778204699921      4.48064728128025     -4.93369607550618
  H   8.94810677614340      2.09505667896606     -0.10672663338962
  H   7.58626620909124      1.88570135451349      1.78394512041567
  H   6.64909401772919      0.46237021270335      1.83031419519730
