33
Coordinates from ORCA-job 25356optt
  C   0.97066788548286      0.07146006556679     -0.13056349561667
  C   2.47007889802506      0.03915361014057      0.05304878449415
  C   2.90240555877240      0.14629942464531      1.49679341821166
  C   3.25444284053161     -0.83893356837286     -0.87923997412994
  C   3.29749950409965      0.65747582990207     -1.04062289710297
  C   4.57591844079135      1.41809814670094     -0.78038376191547
  C   5.51498699457760      1.34771854572601     -1.98246887017367
  O   5.01312773205835      2.02596256270098     -3.12178378826309
  C   4.24847119363556      2.86946306947043     -0.39837979896913
  C   5.48054904310695      3.66754355917355     -0.09786049679668
  N   6.16824113887362      3.33982258869541      1.00363504486245
  C   7.26927165170694      4.03070962157478      1.24728750703752
  N   7.77221247451526      5.01987426662481      0.50939544396322
  C   7.08818399152727      5.32128290403860     -0.57197193257518
  Cl  7.70490456034768      6.59234641000746     -1.57038692672037
  C   5.91826355389214      4.67732030170007     -0.94217800113001
  H   0.49595781286446     -0.75120300323836      0.40902403055568
  H   0.69981356128178     -0.01560075396459     -1.18393287077329
  H   0.55428558469378      1.00742336051017      0.24988890501686
  H   2.47904214994133     -0.68054132867768      2.07142800772596
  H   2.54177570460598      1.07640929065708      1.94248093331097
  H   3.98423423852953      0.11207811831470      1.61570807938014
  H   2.71342019956586     -1.42882942218663     -1.60735539960672
  H   4.14809909015956     -1.31073972625901     -0.48825474324244
  H   2.70825532237489      1.06242324896733     -1.85967280383053
  H   5.11091334447698      0.95929313720972      0.05485493438207
  H   5.72427582739420      0.29877435556933     -2.21572747197027
  H   6.46418384154680      1.83137753142535     -1.74732349339062
  H   4.28609426146710      1.51779518897909     -3.49252707908609
  H   3.61468665783042      2.85954582589332      0.49093153811394
  H   3.69526888460194      3.33856426669440     -1.21294700494480
  H   7.82796107765132      3.76972415998685      2.13914114850402
  H   5.38550697906969      4.93690841182395     -1.84503696532069
