24
Coordinates from ORCA-job 2536optt
  Br  1.23446389454361      0.24185857545973      0.23326845859927
  C   3.07051341169846     -0.06183994900666      0.06831044878433
  C   3.93121515576297      0.94540963394053     -0.19602934969207
  C   3.68160933115911      2.42099539953723     -0.40339718271043
  C   5.10346283670216      3.00447921522416     -0.46222010364496
  C   6.01192134950052      1.85942062190669     -0.85948630724275
  N   5.27318906324826      0.69317972850941     -0.37812668922995
  C   5.77950919390545     -0.54860859197446     -0.26867850338888
  C   4.98055132864668     -1.60725155367563      0.02696993964324
  C   5.55715905271123     -2.90753824491039      0.14908713228782
  N   6.04694279749184     -3.94098704474730      0.24202617044008
  C   3.52786938614682     -1.45740305509728      0.20461738170395
  O   2.78898942274292     -2.38627892465762      0.43931300344788
  O   5.42114112558988      3.35265065528166      0.87938879898059
  C   4.26096914269572      3.79186696362093      1.54772576054353
  C   3.08764606129062      3.17514092728186      0.80098198902584
  O   1.93612915122014      3.33881047067425      1.05168600266410
  H   3.05751754080435      2.59414542876320     -1.28006468304453
  H   5.19214637139956      3.87069893730287     -1.12137486013659
  H   6.98183246717836      1.93475120897497     -0.37056784718281
  H   6.14228214085051      1.80089096861000     -1.94173777415842
  H   6.84427049562540     -0.65497430783899     -0.42825046408552
  H   4.16066930660396      4.88238905676374      1.51779273715208
  H   4.28699997248144      3.46519388005708      2.58676594124419
