23
Coordinates from ORCA-job 25361optt
  Cl  1.10514807794827      0.03848480880165     -0.01191061017796
  C   2.82898846460385      0.01904340504489     -0.02031953039192
  N   3.39172263402077     -1.17543552687825      0.00098675136261
  C   4.71331235205817     -1.20201805713293     -0.00903378616191
  Cl  5.46719693370033     -2.75152537605464      0.02590992296320
  C   5.47205395280478     -0.05111237669729     -0.04172115577351
  C   6.95261984905978      0.18410604448801     -0.09168523231246
  O   7.23575923682518      0.95864400104241     -1.24477338708299
  C   6.60196728692682      2.23906117829373     -1.22259995288790
  C   5.66189771124993      2.33644321291719     -0.01793715900776
  N   6.51570100825631      2.24283458434926      1.17434480116314
  C   7.33577196524624      1.01164533520824      1.16408940229142
  C   8.76936095935479      1.31655329485100      1.15136373941651
  C   9.94339655516768      1.54736544850597      1.14084734799953
  C   4.75132278941325      1.14014253560817     -0.04929737573854
  N   3.42651462424563      1.20137573371907     -0.04245092657342
  H   7.53763630764609     -0.72903058714070     -0.15810182095264
  H   6.05676154611179      2.36522799346814     -2.15859822913257
  H   7.36784124708370      3.01192365115445     -1.12852129334258
  H   5.10994056730674      3.27353043109095     -0.01594389410297
  H   5.95902287336832      2.29464676669335      2.01712044066485
  H   7.11948945869055      0.40621126126900      2.04816012596915
  H   10.98557359891092      1.76088223739831      1.13107182180870
