29
Coordinates from ORCA-job 25373optt
  C   1.03206975620822     -0.11641767401120      0.62950215276756
  C   2.43172764849805      0.10178680483754      0.13136852691730
  C   3.00289000810768      1.39792333205664      0.16926090987620
  C   2.21655998414371      2.56302700075529      0.70181179750502
  C   4.28942191182205      1.49379331131764     -0.31024790419654
  C   4.95385739748445      0.36707435754203     -0.81953427159048
  C   4.30291742749700     -0.83174790137420     -0.79092994733169
  Cl  5.09188185613955     -2.27795730774724     -1.37646317475268
  N   3.07048668035116     -0.96717692079019     -0.32960542527379
  C   6.30114937010818      0.91925437902374     -1.20976153285676
  O   7.29742788491767      0.14223625767156     -1.77063836558624
  C   5.87862777031090      2.25539501763203     -1.87828796746772
  C   5.34910582820338      2.57044484478589     -0.44850831737156
  N   5.07734431485404      3.91862767820584     -0.06430869088676
  C   6.58826475582498      1.74972265081832      0.07803649523675
  O   7.76111384070597      2.50614667525463      0.03005092864463
  H   0.31022810091196      0.41008196134775      0.00052680439558
  H   0.91062565149508      0.26640683531864      1.64477989245174
  H   0.80253477908230     -1.17815451047072      0.61430865212216
  H   1.20612252555640      2.56535800079548      0.29184786979387
  H   2.68979064398744      3.50537470934818      0.43903018313731
  H   2.11811562152902      2.50581863918671      1.78892594457448
  H   7.06300466395772     -0.79166118164187     -1.70405393690864
  H   5.14913666429248      2.20524702678557     -2.68331437267379
  H   6.73796708467698      2.86906226450559     -2.13779371303978
  H   4.87498151801681      3.97898059315900      0.92803908327806
  H   5.90204536679137      4.48487268308459     -0.23351747155876
  H   6.47252591456508      1.23502959936067      1.03681150365330
  H   8.48207502996029      1.93345087324206     -0.25833565285878
