32
Coordinates from ORCA-job 25377optt
  C   1.16122586503934      0.29045517339883     -0.37933052431901
  C   2.63474398188744     -0.08867221753907     -0.19895190158610
  C   2.99529214270268     -0.30469150192479      1.25712340543931
  C   3.42842155717575      0.68986569420436      2.15539597306561
  C   3.71312420564506      0.28857484196175      3.47406887798597
  O   4.15542198852411      1.09804918477733      4.46719972235118
  C   3.52741289283409     -1.04428996925545      3.83028355841894
  Cl  3.86180370312199     -1.54088731258835      5.45111976091069
  N   3.10258845098539     -1.95479610039663      2.99363832280911
  C   2.84505202983932     -1.61130544522977      1.74104370300506
  C   2.40242760152793     -2.77054630965553      0.86186982877004
  O   2.13291706418154     -3.92323389421232      1.60277674842465
  C   3.60889010185777      2.18905809576305      1.81807346673164
  C   2.66744933837848      3.04693912143180      2.67822545100528
  C   5.08416957589020      2.59357649549898      1.92909652570351
  O   3.32026970321163      2.51642601733592      0.46943249138792
  H   0.93156013396427      0.48103838473021     -1.42782826274157
  H   0.89073949015344      1.17955035391918      0.19617569794468
  H   0.50629881756512     -0.50762320018366     -0.02736054775134
  H   3.27865614911715      0.65533291869058     -0.65149879450561
  H   2.81621887326731     -1.01718794331984     -0.73900635082258
  H   4.36170528040350      1.97581228250036      4.14190545917642
  H   3.19255193908485     -2.97087962915868      0.12543397075647
  H   1.50527766822668     -2.49542228308391      0.30102577202276
  H   2.47279126140711     -3.76741933796993      2.49717537800834
  H   2.76804433028340      2.91577047151757      3.75331742623349
  H   1.63392993170847      2.78920538107450      2.43338467783862
  H   2.83250165191610      4.09589118911905      2.43255470718805
  H   5.57463755272455      2.31245706440956      2.85922177899904
  H   5.16765563364947      3.67140056998014      1.79349637383104
  H   5.62671942865504      2.10134872285863      1.12260749775254
  H   2.36850165507052      2.49820318134605      0.32732980596570
