25
Coordinates from ORCA-job 25379optt
  C   1.44676739168102     -1.18482848261229     -0.79039964346127
  N   1.92894412003414      0.07303889908179     -0.23795245101308
  C   2.89974314739291      0.75414480468264     -0.98431465136117
  C   3.08442094566925      2.10975672908215     -0.99430843150240
  S   4.34164951840748      2.48848537008652     -2.10324337013526
  C   4.48437119560655      0.82750254909417     -2.48708070979638
  N   3.69233981518238      0.03705637080920     -1.83459456855255
  C   2.35306485726740      3.09465658074954     -0.21832685487382
  C   1.88895409232900      2.75581974637902      1.05919363609584
  N   2.13910737496388      1.51946792318694      1.64265537933126
  C   1.78094864596188      0.26282507795058      1.12792272681786
  N   1.34681973711939     -0.58424780684856      1.96668799873603
  C   1.24984842752533      3.77004337910924      1.77849265959829
  Cl  0.66163132579215      3.47350847510947      3.37549609959958
  C   1.09871785761329      5.03084521702379      1.22601255375411
  N   1.52620245466831      5.34125763826667      0.00845688673744
  C   2.13171258722023      4.38905729100979     -0.68453629553528
  H   0.43332163513546     -1.35977215328463     -0.43229845941972
  H   2.08761667641160     -2.02678905074918     -0.51734205303578
  H   1.43245015981948     -1.10332316787724     -1.87272648302718
  H   5.20145535251759      0.48410176534265     -3.21807353997556
  H   1.96124361616680      1.49999929345709      2.63915880444072
  H   1.19951130278836     -1.50212597395412      1.56524000681348
  H   0.60465822002260      5.80748388726175      1.79806154816052
  H   2.47549954270352      4.65903563764298     -1.67818078839566
