24
Coordinates from ORCA-job 25382optt
  C   1.02218853430154      0.10731244436504     -0.69764205560568
  C   2.13302512436533      0.05405412485118      0.31363730818307
  C   2.10797654452482     -0.88103651830476      1.57472979936712
  C   3.65675026122013     -0.63820896335798      1.55815629349581
  C   4.64728752226151     -1.51633590671420      2.24489090378203
  O   5.35084920233680     -2.27662002557622      1.63572446091105
  C   3.48808939535531     -0.64931464944812      0.01140757144165
  O   4.37494230683712      0.05482870474640     -0.79196185562756
  C   3.66817650231303      0.84863940691274      1.81953124468127
  C   2.64545799395430      1.31865067053060      0.96742147800801
  C   2.43741593608388      2.65580077816634      0.98040574131129
  Cl  1.25133190459353      3.46505255686303      0.02643213010973
  C   3.26989075597506      3.40313502010482      1.84938241782396
  N   4.20124489766287      2.88476785185975      2.61112907450561
  N   4.42229015092763      1.55665564461506      2.60186745430469
  H   0.78396783301383     -0.89883225567952     -1.04465652848216
  H   1.32198151800491      0.70731759090566     -1.55754497769018
  H   0.12136616686722      0.55086200386613     -0.27317561078583
  H   1.84370689852426     -1.90638308496877      1.31905246863154
  H   1.56116007911555     -0.53024378312976      2.44660566375622
  H   4.70874248961923     -1.43501264781267      3.34388662394701
  H   3.32335344902977     -1.66906475697856     -0.34566933144637
  H   5.19924945008728     -0.43944803552501     -0.86052955838843
  H   3.15255508302509      4.47842382970880      1.90991928376612
