31
Coordinates from ORCA-job 25396optt
  C   4.20301716199984      0.23238248361911     -2.29932169209575
  C   4.11560303311570     -1.03171649777091     -1.46023575403156
  N   2.78075079019285     -1.20998705051703     -0.87617173715825
  C   1.86376588731893     -1.92740437438224     -1.59479200140172
  N   0.63476870133897     -2.08197715974400     -1.30391759642824
  C   -0.14503735990950     -2.93046943735687     -2.10958983105868
  C   0.32019300766397     -4.20395561795135     -2.45073860827700
  C   -0.48038459239163     -5.03170502880909     -3.21340969146204
  Cl  0.08471669496474     -6.61668840128151     -3.63130486734983
  C   -1.73207100552826     -4.63020600225059     -3.64404675455249
  C   -2.17930738256767     -3.36499658446099     -3.28593971640255
  O   -3.39852079659802     -2.90589431187459     -3.67891993758176
  C   -1.41072468218052     -2.49537622153950     -2.51278126593349
  C   -1.95787552080178     -1.14176084331988     -2.17006074575008
  C   2.54621046320337     -0.50650294599261      0.33384056888305
  N   1.29861692131111     -0.58205166770583      0.83213544466477
  O   3.45210447556345      0.11142529203790      0.85237843110931
  H   5.20428028997620      0.34210690075902     -2.71677178892959
  H   3.98915502392397      1.10424148708428     -1.68221230925952
  H   3.48923774609903      0.20113648273371     -3.12446227765367
  H   4.82610567254419     -0.99603879519605     -0.63956432485663
  H   4.33149915962311     -1.91545208027329     -2.06041438112406
  H   2.29525943925568     -2.37689059356505     -2.49353032586255
  H   1.27587109621036     -4.55452429278782     -2.08705915283764
  H   -2.34719269101488     -5.29329243745803     -4.23877030289934
  H   -3.85274178780783     -3.57865643373048     -4.19541782777111
  H   -2.93134803613082     -1.23382734793476     -1.68673177683684
  H   -2.11164765222999     -0.54985248914501     -3.07434285305677
  H   -1.27914097805549     -0.60362227991420     -1.51411564731364
  H   0.57944652872273     -1.10741280741145      0.35205974541006
  H   1.13439039218816     -0.09003094386085      1.69220897781764
