17
Coordinates from ORCA-job 25395optt
  Cl  1.82049689751072     -1.16182863101164     -0.52839370835794
  C   3.35863333660599     -0.44330140199772     -0.38749457977789
  C   3.54680189158625      0.87642275710700     -0.39957056060934
  C   4.89329041905256      1.39877099419314     -0.26802041886331
  O   5.17376845117449      2.56481207034303     -0.35585165183911
  C   5.99524058330926      0.37792555289792     -0.00904813870219
  N   7.05682393789692      0.84746132439730      0.53247019047821
  C   8.03065215347741     -0.15465784785364      0.63682013467641
  C   8.21604597993247     -0.91926281850332     -0.44630716797155
  C   7.76308226050137     -2.30728892773325     -0.20293469246243
  O   8.30297347694003     -3.31693833882068      0.10434641695415
  N   6.31873909757816     -2.21706305602205     -0.28052383536474
  C   5.66478145737208     -1.13098103885982     -0.23670160245960
  O   4.30796068736630     -1.38519339142560     -0.28250789254298
  H   2.72045244478266      1.55902787500983     -0.51725743044779
  H   8.35208139279924     -0.41440785843752      1.63997098451899
  H   7.85817553211400     -0.50549726328298     -1.38499604722888
