19
Coordinates from ORCA-job 25406optt
  Cl  1.49133443992455     -0.81630753678778     -0.10947003958066
  C   3.12012353138153     -0.30937764906803     -0.07911277268999
  N   3.88804369417776     -0.72207428691831      0.84307725537752
  N   5.15880507072929     -0.30299389333893      0.87988389305362
  C   5.69057530401733      0.78318233858605      0.19349283227326
  C   7.02974170975224      1.15410185981640      0.82478245441809
  C   7.05816589806947      0.22843356209868      2.00508728646045
  C   5.99561488779921     -0.55850219854088      1.97000344188483
  O   5.85172233018289     -1.55182279732341      2.84971819674610
  C   6.94627948436359     -1.57674919074221      3.71297627886155
  O   7.03970241660975     -2.35678987978178      4.59161567976544
  S   8.11124989031972     -0.28560500915340      3.29089034839656
  C   5.05187660136987      1.39170324043696     -0.80912683759397
  S   3.58417236340830      0.74297745688079     -1.45857944860663
  O   3.87011574970159     -0.11645031353367     -2.56729439725368
  O   2.61628538443210      1.78517463786542     -1.60800745006805
  H   7.05651265992163      2.21330915007637      1.08198470891719
  H   7.83864264537430      0.95430408638412      0.11830905121506
  H   5.43203593846483      2.27548642304361     -1.30123048157674
