27
Coordinates from ORCA-job 25404optt
  C   1.13553534070060      0.47428214711658     -0.14429349145780
  C   2.64274895854864      0.24322724859942     -0.26278551290872
  C   2.98868160673093     -0.85866515373920     -1.21422706367871
  C   3.61827094110214     -0.75026651457186     -2.40646599553752
  C   3.75633398340134     -2.00855249489370     -3.07551663231267
  C   3.21057194887479     -3.06650955855130     -2.34004215977840
  S   2.54039906697674     -2.50346797723286     -0.85375043767628
  C   3.23809587785557     -4.39792668855364     -2.78903692919124
  C   2.68577620108817     -5.43729163880920     -1.98783459835207
  C   2.21143842541221     -6.27579324875308     -1.27434133905292
  C   3.82356082815393     -4.62495448174706     -4.02800062125867
  Cl  3.88647664253912     -6.22568350063149     -4.66505629817145
  C   4.36370972034801     -3.58869640164621     -4.79572099831659
  C   4.33772165445200     -2.29688592616203     -4.31487975401572
  O   4.82756282705850     -1.23406059131769     -5.02784806110280
  C   5.96764377971197     -1.40052501684129     -5.76265170859657
  N   6.35855633539183     -0.59072244442870     -6.62933064852600
  H   0.92690530674010      1.30497773262570      0.52955250431803
  H   0.63289308634010     -0.41218398901362      0.24398959611121
  H   0.70620907369512      0.70286042284963     -1.11995308949580
  H   3.06059846963682      0.02448162905109      0.72295307011395
  H   3.13143963825736      1.15126319885921     -0.61999476138953
  H   3.97694985409484      0.18572454235299     -2.80997175400703
  H   1.79578905375194     -7.02860235674293     -0.64802630769298
  H   4.77343521189574     -3.81221735247279     -5.77069343444811
  H   6.53855965146199     -2.29028927504974     -5.50407346628430
  H   5.69913651577946      0.17947768970378     -6.74500010729128
