28
Coordinates from ORCA-job 25402optt
  C   1.05205384979693     -0.54143818747883      1.17559183088356
  C   2.54927896940562     -0.64288668803990      1.09988800640405
  N   3.04083147145684     -1.90567894178468      0.94835725127176
  N   3.22926365119267      0.44354334520454      1.12005464330411
  C   4.61868737458715      0.53619788117332      0.99780764883209
  C   5.18616172280503      1.48205489428082      0.16613788610255
  C   4.44074395564009      2.41783187887873     -0.76343061956270
  C   2.92399452679658      2.36689354729614     -0.89374956500084
  O   2.25109652875422      2.81216672742924      0.25445367862384
  C   6.60995491096219      1.61858195927794      0.14499866372457
  Cl  7.42190345505813      2.75534197811869     -0.88536182429270
  C   7.39836973857570      0.85513640140381      0.94531700846584
  O   8.73241143844561      0.88592996742799      1.02148437164561
  N   6.82193326729501     -0.04591720488431      1.76605365770916
  C   5.45926232198072     -0.27366004883347      1.86960856611277
  O   5.06315176833616     -1.11618926912567      2.66832916975505
  H   0.59114453346376     -1.17722904717892      0.41764052360598
  H   0.73458584057968      0.48692268501792      1.02573209676177
  H   0.71024399596617     -0.88390882619959      2.15421727132197
  H   2.37558888603034     -2.65281980013277      1.06220189218634
  H   3.94477676087679     -2.08121573185624      1.37055404376367
  H   4.86938634464302      2.27509867072894     -1.76116431154000
  H   4.71352893075524      3.43795967137110     -0.47384807965659
  H   2.59868598921573      1.36322495610290     -1.18653514696983
  H   2.65187064290385      3.04764830494342     -1.70238778957225
  H   2.41411951214734      2.11101561705316      0.91336639572947
  H   9.06623678908358      1.55853827344122      0.41121507551952
  H   7.41273282324577     -0.60214301363552      2.37046765487123
