30
Coordinates from ORCA-job 25407optt
  C   0.77914898375073     -0.36049818201018     -2.61547043383848
  C   2.29425350938160     -0.39741329111702     -2.75805718226434
  C   2.98866164619030     -0.55752892470535     -1.39963775121493
  C   4.48267319920960     -0.52353079650236     -1.52357924013232
  C   5.22380100359888     -1.64245358374377     -1.66156312180439
  Cl  4.53391882793458     -3.22917527826200     -1.69798052028531
  C   6.65782225977880     -1.57550695933362     -1.80686398966057
  N   7.32909989760094     -0.48673277185351     -1.80446988134463
  C   6.65451238415778      0.72096220544388     -1.67851705178753
  C   7.42870733625519      1.85228606356181     -1.70144142560249
  O   8.77028905578102      1.84719036640200     -1.78358036401853
  C   9.55812241795981      0.95343393774247     -0.99839293024820
  C   6.91814274785040      3.23039432602094     -1.71422793664388
  N   7.61503122916965      4.28773118173341     -1.79847510445288
  S   5.17996888759293      3.48060668616102     -1.59756000368952
  C   4.51286193399029      1.91728822356832     -1.51669659710804
  C   5.19776374693682      0.74766261065319     -1.55982581030019
  H   0.29387070032099     -0.26048932901190     -3.58617638140339
  H   0.46543461771089      0.48212354031128     -1.99580198629225
  H   0.40973046027783     -1.27421027746908     -2.14671905636855
  H   2.65014566798443      0.51389817923749     -3.24460395229654
  H   2.59285858549935     -1.22951823870751     -3.40021490380166
  H   2.68463926538102     -1.50642048780316     -0.95824184589508
  H   2.65167508922360      0.22375497766738     -0.71589642665614
  H   7.19969136572078     -2.51027753111312     -1.92304628323082
  H   10.45259301550407      1.50989289223686     -0.72429615496293
  H   9.81641268744804      0.06838724495405     -1.57213031593348
  H   9.01453876744421      0.65473274375913     -0.10259142535645
  H   8.60241437046824      4.04581675702179     -1.85743151254122
  H   3.43521633987715      1.93859371515757     -1.43951041086524
