26
Coordinates from ORCA-job 2540optt
  Br  1.11433183126013      0.04757526422163     -0.09903369038331
  C   2.96956812006722     -0.05956229211265      0.02539091448441
  C   3.66885405245545     -1.16228954934670     -0.19603024792576
  C   3.23983027504869     -2.53402595826441     -0.58283070355760
  C   4.50187171643097     -3.40077467405643     -0.30724557973783
  C   5.67031447836756     -2.41161291732653     -0.42808025343450
  N   5.06112439130868     -1.12826646032886     -0.09382600663513
  C   5.77860757225763     -0.01322548699459      0.19300200264106
  O   6.98013795323071      0.02869378672171      0.23695763974203
  C   4.92656497565889      1.23608628456427      0.48031327138079
  O   5.39875601242070      2.27448094204937      0.78980230934187
  O   3.56530562374500      1.11614857981560      0.36521186335333
  N   4.60092639363039     -4.48285818296328     -1.27099104945072
  C   3.30459571679716     -5.08051106778921     -1.57819901276929
  C   2.54526397184853     -4.09880154834504     -2.47048603729261
  C   2.81386248180635     -2.66918810727406     -2.04666342579224
  O   2.69947618740975     -1.72827395017075     -2.77902714152745
  H   2.39233253694159     -2.87743299183872      0.01669169809067
  H   4.43801990627301     -3.76368708997777      0.72649630173092
  H   6.04417402590443     -2.39612838859265     -1.45372403508865
  H   6.49825278995961     -2.61293911741330      0.24912862699009
  H   5.26939984245835     -5.17799504812473     -0.96682981459747
  H   2.72717465965092     -5.31336359651265     -0.67213950617007
  H   3.46543452648275     -6.01952371465014     -2.10472170059197
  H   1.46541777758494     -4.26773760595604     -2.43090152942129
  H   2.85840218100054     -4.18678710933404     -3.51026489337927
