28
Coordinates from ORCA-job 25410optt
  C   2.17538088183766     -2.54546120260681      0.33034092973653
  C   2.45688067181374     -1.06690955289591      0.56421979539813
  C   3.43119132326074     -0.86968203141212      1.70241351306959
  O   3.64451478198202      0.53357708813933      1.86186730756265
  C   4.49732074275580      0.94531096815761      2.80291832729533
  C   4.76210222117563      2.25460214309603      3.04990206172262
  O   4.16939382061819      3.30847225972022      2.40204094102736
  C   4.33889728231453      3.38294324400073      1.04542567345756
  N   3.78491084217979      4.23724685832037      0.32357506455934
  C   5.69439727268973      2.44214841355866      4.11382910905589
  C   6.12228248062789      1.21844477751627      4.65357762907526
  S   5.38621541315710     -0.14259682256411      3.84789964503811
  N   6.98095829972667      1.07689554746513      5.64649902079103
  C   7.47276131227127      2.18987057205589      6.16838640162941
  C   7.11354836040334      3.46113978129520      5.70552520973921
  Cl  7.81863776617177      4.84982045093450      6.45380843987760
  C   6.21615578181494      3.60844195963324      4.66902579851657
  H   1.46620732268043     -2.68006519513158     -0.48502660882446
  H   1.75133121261796     -3.01146901675593      1.22135482086364
  H   3.08785521944365     -3.08521941445257      0.07174577680639
  H   1.53472113822195     -0.53284587759857      0.79967094057166
  H   2.87173068444321     -0.60856144008987     -0.33531473399522
  H   4.38907116179638     -1.35581526421547      1.48754076130986
  H   3.03398205549200     -1.27987731335530      2.63697661843409
  H   5.01804383574472      2.63201345428880      0.64591958056447
  H   3.18019633967160      4.85085968308399      0.87030229822769
  H   8.18038543611321      2.08918129221379      6.98189680337346
  H   5.92892633897397      4.58553463759844      4.30467887511621
