27
Coordinates from ORCA-job 2541optt
  Br  0.94401193099960     -0.92058847884574      0.44100776172089
  C   2.77151535592886     -0.50991944252669      0.33975385457444
  C   3.73355774556882     -1.45698148145932      0.23963261888821
  C   3.68441507034580     -2.95817654592229      0.22297570225812
  C   4.97411409568686     -3.29080172955164     -0.54501793207084
  C   5.93703416173486     -2.20149889689754     -0.05967297429334
  N   5.02811353429742     -1.07164578448653      0.12456593368477
  C   5.46482313850219      0.25996183807374      0.14306954474790
  O   6.64479266477188      0.50334641147497      0.04924906830209
  N   4.46220615577421      1.20771034144668      0.25751441612377
  C   3.22324181615356      0.83840814300470      0.34237065351344
  C   5.43407713881270     -4.72451165029203     -0.35435236143456
  C   5.45521895922655     -5.16172128366794      1.08609830739682
  N   6.22526886840731     -6.01898838910644      1.60986398721533
  N   4.48353827745454     -4.59315818783922      1.89889252279084
  C   3.69746649333446     -3.47891292634097      1.65827921886453
  N   2.98969993517548     -2.88974876824324      2.52460829170234
  H   2.78118689323654     -3.33073513071357     -0.26218953392519
  H   4.78494735875830     -3.11541004704241     -1.60558502312167
  H   6.71186967648537     -1.93348626776315     -0.77416145545206
  H   6.41667810604115     -2.45575227978144      0.89082456669979
  H   2.47851642224893      1.62666612510379      0.42409023288809
  H   4.74775406092074     -5.39053694081873     -0.88488630555643
  H   6.42583885355106     -4.87729616397325     -0.78059691909482
  H   6.88833933934257     -6.38409019032507      0.93287365704635
  H   4.51138997151157     -4.93334479649446      2.85205199064877
  H   3.04638397572854     -3.32378747701217      3.44474017588244
