31
Coordinates from ORCA-job 25422optt
  C   4.40734623021544     -1.51386207727989     -0.09827197135661
  C   4.39093316019408     -0.84880493927457      1.27905209612356
  C   5.48141977316733      0.22710732201512      1.36809165020652
  N   3.01603284359476     -0.36541525139602      1.51744332021095
  C   2.83841879402267      0.60540057501405      2.53916314903755
  C   2.53841362437280      0.29765233504466      3.83251420959868
  C   2.31835084772422     -1.12763337538398      4.29472445492909
  O   3.27328722373694     -1.54945964063953      5.24112078041598
  C   2.37382575800698      1.35014175090757      4.79223049358624
  Cl  2.03082484400429      1.00367807015994      6.45273679423041
  C   2.46134905544034      2.65078036895041      4.41050635324382
  N   2.25523222840085      3.74393321955647      5.22371467717492
  N   2.70767727122065      2.93423889437079      3.09399599042839
  C   2.88372813166248      1.99500464482282      2.08934296682054
  N   3.04384360790026      2.28243173652115      0.84751508436436
  C   4.70323412318498     -1.88013752305697      2.29284160969156
  N   4.98785720280681     -2.66627168828050      3.07731906608927
  H   4.22977617221997     -0.74648554364378     -0.85372480146900
  H   3.62778248908661     -2.27105986401452     -0.16441646376111
  H   5.37457506256368     -1.97583031353712     -0.28934711077398
  H   5.29560187774465      0.98099649348241      0.60532382757561
  H   6.46251471285922     -0.22337466419202      1.21649982236787
  H   5.47015221348406      0.70600376375789      2.34740498879139
  H   2.71358399614723      0.06752408422483      0.64793022437027
  H   2.28619823013625     -1.78338585220235      3.42519623387145
  H   1.34510395495458     -1.16598200485084      4.78943164201652
  H   4.00693394881362     -1.96385327809890      4.77018959837183
  H   2.19320676859084      3.50954143671391      6.20392109884002
  H   2.86406458687333      4.53134041452493      5.05309070268873
  H   2.64575953363771      3.90057944769594      2.80964521248061
  H   3.01297173323223      3.28220145808807      0.66681429983452
