26
Coordinates from ORCA-job 25429optt
  C   1.78867419851347     -0.64589319008579     -0.08971074787288
  C   2.66471155278267      0.54822607933675      0.15280327917540
  N   2.99087219130506      0.88158811278677      1.52364623868543
  C   4.44986457229150      0.83562244612024      1.64973540209160
  C   4.92104788629839      1.41573940574446      0.29893522341779
  C   3.86089297515622      0.89186676789780     -0.67187172579797
  C   2.60912862867650      1.72351641803534     -0.81440843950803
  C   2.59918448224913      3.11020000022824     -0.32816614298086
  N   1.47836669698642      3.81705495000087     -0.51418122274063
  C   1.47734661415162      5.04806890234130     -0.07640969440667
  Cl  0.04482003876052      5.98646706984630     -0.30226479226566
  C   2.57846872876132      5.63575768481055      0.55714446066938
  N   3.68871254420942      4.95096959359287      0.71937534627386
  C   3.71067638598909      3.69215962096754      0.28297031763861
  C   4.99556928088049      2.92694246072692      0.42667667663809
  O   6.02967017402799      3.48195992579036      0.68486320170308
  H   2.23899894753461     -1.54356505262284      0.33958934813026
  H   1.64478311375167     -0.80932349669089     -1.15737793202307
  H   0.80564562350344     -0.50038199385540      0.36285323376084
  H   2.50856703632539      0.28781913496665      2.18361275507440
  H   4.83515176745752     -0.18673645932182      1.74939619072985
  H   4.79314795305980      1.42368219807332      2.50146931731929
  H   5.92048294212583      1.06933667868678      0.04618729891257
  H   4.16974935850861      0.28119366477632     -1.50849213744178
  H   2.00337053041576      1.56580242090105     -1.69702763208374
  H   2.53809577627754      6.65792665694626      0.91165217690082
