34
Coordinates from ORCA-job 25431optt
  C   1.69091973366759      1.01848907935918      0.00929537893751
  C   2.59039323942713     -0.21267979907688      0.01047085067430
  N   3.79952127745074      0.05232474223865     -0.77509444119365
  C   2.99810259778100     -0.69740131202743      1.39039107873669
  C   3.47387027655130      0.11875548744023      2.42006070405516
  N   3.82572795988024     -0.37212842223565      3.61181244821020
  C   3.74338861837173     -1.66079591535125      3.81837353410331
  Cl  4.25557548195932     -2.22861128972271      5.38315576023754
  C   3.27994407566919     -2.58715540596598      2.88781214748424
  C   3.18955274433607     -4.06206296721665      3.19254701866196
  O   2.53848320630679     -4.79345289861391      2.17879691708695
  C   2.90962023522850     -2.06054098444826      1.66282887352988
  C   3.67039325013836      1.60502689390890      2.28613454838465
  N   4.52957987586158      2.12065744450797      1.49845733281278
  N   2.91921635983510      2.39018074383742      3.12020706099223
  C   3.12102685406472      3.82029110725082      3.03089890118291
  C   1.62968858741498      1.97477977015511      3.62805502825669
  H   1.30450298430304      1.18427147702514     -0.99830302528483
  H   2.23641802676728      1.90974067986747      0.31378421984513
  H   0.83907545600258      0.86792193413648      0.67384791205103
  H   2.00397776706433     -1.03312798114626     -0.42397898687994
  H   4.31403792380578     -0.80471988305738     -0.94336615431681
  H   3.56004818657648      0.45012919889897     -1.67630482166796
  H   2.70793475872491     -4.20450062415598      4.16406629599871
  H   4.19624053881105     -4.47590009172264      3.28114304207593
  H   1.58879195137576     -4.66486872798117      2.25632295754048
  H   2.54351683896892     -2.73971686101731      0.90124765019177
  H   5.00282213339145      1.40147684074550      0.96052320120515
  H   4.18562938649620      4.03790329089622      3.00773417903011
  H   2.66376356315104      4.29099527069217      3.90054843800206
  H   2.67452114754940      4.23634979757531      2.11993293380210
  H   1.57210041220291      0.89272095763341      3.70632250819411
  H   0.81218645154871      2.32344202290844      2.98434793847747
  H   1.48042809931572      2.39220642466208      4.62492856958207
