31
Coordinates from ORCA-job 25432optt
  C   1.06763056711571     -0.62621534898965      0.93409610174807
  C   2.24851427321988     -0.01412095135660      0.19494278813066
  N   3.03366983892485      0.77167981868301      1.12214756398164
  C   4.28668659346044      0.77770166313413      1.12354264892115
  O   4.86103163926651      1.45283497145710      2.19235147277655
  C   5.99376290261807      0.98238779447042      2.78224424479455
  C   6.23980609735519      1.63999356133986      4.10006925460721
  O   6.91535744667896      2.85334357922339      3.86717363478765
  C   7.00415718728211      3.63738377686427      5.03121884496272
  C   6.78251412041706      0.07897372837995      2.18602716754110
  Cl  8.22392512891144     -0.51001753449714      2.92917888253885
  C   6.50459474259659     -0.30004084800612      0.81794403982977
  C   7.31840992462319     -0.92233523036800     -0.07796746514509
  S   6.63803644043844     -0.87679400941114     -1.64388852104567
  C   5.23156879205514     -0.04205671073198     -1.12414800004608
  C   4.23941595745822      0.44733832991613     -2.13194696690851
  C   5.28085776607949      0.15976208210068      0.23045646784238
  H   0.44338192870711     -1.20035439390336      0.24838599829377
  H   0.46392980453930      0.15625382487010      1.39228792447272
  H   1.41650454836205     -1.29176488032158      1.72370697515203
  H   1.87162796539549      0.63690873324621     -0.59821589450902
  H   2.84098099927719     -0.80501013090884     -0.27688029535255
  H   6.83419805326029      0.98659166017940      4.74617756434030
  H   5.27103202661552      1.82649336859939      4.57793334922930
  H   7.55993258968788      4.53634948398186      4.77481815860040
  H   7.53137610574784      3.10416567779480      5.83064174366608
  H   6.00853847601553      3.91886305392869      5.39208541632747
  H   8.29161211498563     -1.34965825224244      0.09863110653969
  H   4.74794606893748      0.74429653424869     -3.04871864558545
  H   3.71348905843311      1.31548494048049     -1.73839525997084
  H   3.50051084153416     -0.31343829216176     -2.38690030052090
