29
Coordinates from ORCA-job 25438optt
  Cl  1.31235773365712      0.15816807174240     -0.40260698734805
  C   2.98906436480209     -0.08802695841292     -0.15587684908734
  C   3.53396427183126     -1.23638927747783      0.26123033051169
  C   2.76418725279931     -2.50002767037023      0.54150638949726
  C   2.91746437112366     -3.47558642400340     -0.64065071271441
  C   4.29104692370627     -4.14871035207396     -0.36121653941658
  N   4.74372117976634     -3.68357874207461      0.96417880713088
  C   3.50597586052290     -3.28041598015053      1.63620793994660
  C   5.63653140032475     -2.53564258882615      0.88501888384010
  C   4.98554049405816     -1.26000391773165      0.37457539589597
  C   5.70734599264329     -0.16967942194782      0.06764519901454
  C   5.07191786414037      1.05208635571249     -0.36441957167345
  O   3.68769889046972      1.02469743064948     -0.44832117274722
  N   5.69322159546552      2.11233223262063     -0.65833440228995
  C   4.90048288607921      3.24815990917518     -1.07237076482822
  C   5.76001960274746      4.39322542195208     -1.39555462402708
  N   6.39831650582554      5.30712504444602     -1.65691580479489
  H   1.72551816842645     -2.28025725153194      0.77747997413780
  H   2.87898311908465     -2.96800582542725     -1.60324919642614
  H   2.11535515214566     -4.21364855725554     -0.61611565946182
  H   5.03874898401457     -3.90404793606021     -1.11516749691585
  H   4.18693070876900     -5.23352035564832     -0.33959160988945
  H   3.72287420443628     -2.69758124183903      2.53158101047997
  H   2.93658159503190     -4.16691731789026      1.92318670162882
  H   6.49258361593687     -2.78776030683809      0.25772965788781
  H   6.02720584089075     -2.34176070557528      1.88781037306045
  H   6.78644126620448     -0.14399114515819      0.13550759264340
  H   4.20116167579259      3.56292291433718     -0.29050310468959
  H   4.29375847930377      3.02283459565778     -1.95576375936526
