25
Coordinates from ORCA-job 25441optt
  C   1.04095842400427     -0.09503271277377      0.30045706992627
  C   2.52807031097294     -0.11532773556462      0.03335566693756
  O   3.17832077232509      1.01601480749167      0.68750423301172
  C   4.10529439862955      0.21305040881770      1.27801232610961
  N   5.20121460549288      0.45802716990298      1.81983504220726
  C   3.40156952312222     -1.06733713007469      0.91600542711872
  O   4.15854857759662     -2.09085557996556      0.35127647251484
  C   2.83541275268469     -0.12918078983338     -1.45114312064012
  N   3.27884254457655      1.00176235906519     -1.97688247539167
  C   3.47134605495861      1.11431087121667     -3.26903932881694
  Cl  4.04252233460270      2.63590704555421     -3.85358643906121
  C   3.21772385769802      0.06075786693879     -4.14498097742203
  Cl  3.45345246590484      0.20246138691221     -5.84097391684981
  C   2.77373708522603     -1.13416516276123     -3.61184880663254
  C   2.57687759216793     -1.26291546155672     -2.24095833834526
  N   2.08199885654327     -2.44202002403639     -1.69057399949755
  H   0.85417396056293     -0.10834518605596      1.37475672188771
  H   0.56265769377863     -0.95817795844128     -0.16179587310690
  H   0.61351230525756      0.81618235450359     -0.11860642696137
  H   5.41445332030675      1.45512592370238      1.81468984270510
  H   2.81165247604273     -1.47139896251813      1.74034183202762
  H   5.04579099616950     -1.76053384244246      0.16546914388554
  H   2.58687345099575     -1.97201942860771     -4.27212866222331
  H   2.01456375808751     -3.19801126661544     -2.35581769816677
  H   2.58743188229240     -2.74027895285803     -0.86536771521645
