29
Coordinates from ORCA-job 25445optt
  C   1.96093049187893      2.74431352932061      0.28852805570666
  C   2.03939861124937      1.31890367479946     -0.23043451549105
  O   2.21289062568539      0.38493887719921      0.86748332562803
  C   3.58826747047540      0.03204678880465      0.98846321219384
  C   3.88417107812031     -1.44677262212813      1.28349147536163
  N   5.32202577140015     -1.72646357023972      1.04891038557803
  C   5.78518924405395     -2.97925450721212      1.60498823744690
  C   5.78099698811393     -1.44714958276206     -0.24011935744217
  C   6.68722064093693     -2.04527884427109     -1.05754035464420
  S   6.75125243670371     -1.31660528808620     -2.65576025040849
  C   5.48144419834539     -0.20507060208868     -2.25602679220849
  C   5.14446914039846     -0.36920312080424     -0.92032639474038
  C   4.09966649749229      0.31490067519846     -0.36744122542944
  C   3.24261763697696      1.05835873538314     -1.12066719825678
  C   3.55748003106583      1.27285219297612     -2.47006968264883
  C   4.68769943287536      0.66513412908159     -3.01526137675878
  Cl  5.06374881402752      0.89925609308667     -4.68729636572769
  H   1.12705061767221      2.85096407759244      0.98120271509417
  H   1.82221185114347      3.43886896392980     -0.54172047718843
  H   2.88554875231850      3.00773555281592      0.80437979575145
  H   1.10701918472895      1.04243836533667     -0.72570531987714
  H   4.07547183993475      0.64643809938933      1.75556701349254
  H   3.24609343922350     -2.06751118300080      0.64027905350076
  H   3.67249200249989     -1.69167386481415      2.32343080789494
  H   5.46696646707332     -3.05670980185530      2.64317730583851
  H   6.87508371620993     -3.00482351984496      1.57986039969487
  H   5.40323491265401     -3.84742713499130      1.04993989734875
  H   7.31418141270196     -2.90029886617921     -0.86182515118593
  H   2.92717669403954      1.86409275336389     -3.12150721852328
