35
Coordinates from ORCA-job 25448optt
  C   3.09526716364450     -1.13261283894487      0.38808286288040
  C   2.62241393120152      0.20705553122202     -0.16566965392689
  C   2.97351402995262      1.44271247504675      0.68678978143217
  C   2.47521886094615      2.68282509339982     -0.05731014790627
  C   2.25684485131305      1.35060147535768      2.03832256146091
  C   4.50813625268977      1.48454191921443      0.84597075972103
  C   5.15000869995382      2.85559148526256      1.16934463725640
  C   4.73100415640894      3.40788071687365      2.45912939949050
  C   4.43782479347737      3.85049353319368      3.53306286574609
  C   6.65842657794032      2.71392357687321      1.11067771644860
  C   7.38183598599447      2.73277344017095     -0.03523521324878
  Cl  6.62396985832688      2.98690663696396     -1.56473760591498
  C   8.82462800653324      2.53426183761402     -0.00665114667591
  N   9.65436358225948      2.53547883817285     -0.97612058766094
  C   9.32444838891895      2.31374319230546      1.35494681628734
  N   8.61415172524240      2.30033902484533      2.42317788090806
  N   7.29689328824635      2.49291393815142      2.28818499061471
  H   2.77994095400162     -1.94637397993789     -0.26509752486215
  H   2.68052077939459     -1.32715267216490      1.37797942909674
  H   4.18257478584038     -1.17864958730980      0.46310991347688
  H   1.53530487542803      0.18367623356838     -0.28622990779523
  H   3.04203882855515      0.35129834762621     -1.16654735003055
  H   1.41148286371361      2.58171774631142     -0.28062018304694
  H   3.00646641290392      2.81681002785226     -1.00359102504938
  H   2.59993972196909      3.58715510111856      0.54204707552574
  H   1.19318807004800      1.15706727922206      1.87984241881457
  H   2.34823621876665      2.27695983362117      2.60207765145605
  H   2.65902779463545      0.54434883471674      2.65349526462088
  H   4.95970015765035      1.15975207024414     -0.09563942924228
  H   4.82417356955881      0.77394711834491      1.61391026420813
  H   4.86963594416442      3.56526940785791      0.38944522713497
  H   4.15163189812839      4.24948424904031      4.47758958574579
  H   9.18288437735600      2.70058939461349     -1.86396106786239
  H   10.38873870036491      2.15443435340392      1.47321132299592
  H   6.78056389447066      2.55923636614816      3.15201241790079
