26
Coordinates from ORCA-job 25455optt
  C   0.68024285732228      0.23385747009185     -0.73839012058060
  C   2.06557956850646     -0.16151325941978     -0.23349192499848
  C   2.76749975168596     -1.16725759033883     -1.15262967859554
  O   3.45638838865826     -2.16622775457809     -0.37625521198080
  C   4.73317296887118     -2.25734539164595     -0.79804465970906
  N   5.53394060647254     -3.18182915594147     -0.33381527848816
  C   6.77704782699338     -3.15905554409852     -0.83444371043550
  C   7.23103438404810     -2.24753632343319     -1.76979928127100
  C   6.33716638209744     -1.27530749043143     -2.22225125973405
  Cl  6.83703601367486     -0.08489512620748     -3.36912342093460
  C   5.05677602718285     -1.27381325862530     -1.73697335895155
  C   3.86531886485755     -0.38559394116971     -1.93102988316184
  C   3.95990621312072      0.91537892130181     -1.17671252261358
  C   3.01649949798021      1.02124342128195     -0.24050637447703
  C   2.82608376823943      2.12544866564051      0.63750747267292
  C   2.62692476615856      3.03563140567301      1.39344066081085
  H   0.00443382041720     -0.62180966764689     -0.72119641323268
  H   0.73891484194460      0.61001492993886     -1.76220358051674
  H   0.25780553703600      1.02165937507184     -0.11472153458679
  H   1.98304903442082     -0.58843400048943      0.76787558290551
  H   2.06766130961219     -1.69313314719576     -1.80353612747343
  H   7.45052131202304     -3.92085677284896     -0.45996980144372
  H   8.24571716272831     -2.28103993004567     -2.13720886183349
  H   3.63010899364466     -0.23141429979236     -2.98629584529114
  H   4.72189706222446      1.65512253714839     -1.38176115436638
  H   2.46527304007887      3.84670592776061      2.06253628828690
