26
Coordinates from ORCA-job 25456optt
  C   0.93211697191953     -0.36772857588799     -0.64147560723336
  C   2.19957874185907      0.04509009970820      0.09160750150215
  N   2.84344466969308     -1.13683539138004      0.62327311440531
  C   4.09495265833022     -1.32810715327064      0.68741304591827
  C   4.63472619439674     -2.65279706057604      0.97092579759507
  N   5.84067336178233     -3.00657413278979      0.70191017193877
  C   6.71114389270103     -2.10558160730003      0.18700333970978
  Cl  8.24631674043158     -2.70002815446810     -0.31525668661725
  C   6.42463479655422     -0.77314562605819      0.10912159318342
  N   7.33400523691277      0.16480069777298     -0.29646873987581
  C   7.09023592907722      1.41978764094531     -0.11628713038986
  C   8.09156684575377      2.42676181693902     -0.58306962904910
  C   5.88508716256384      1.87179211321311      0.53422833953210
  C   4.93697471772435      0.95738111429228      0.79453845404973
  N   5.13296136494932     -0.36850955954970      0.49619643720791
  H   0.40635112543888      0.50732804435234     -1.02517574350487
  H   0.27170868623272     -0.91198824846501      0.03238617896938
  H   1.17613105700296     -1.02270947709832     -1.47774640880266
  H   1.92753503536244      0.72335223523815      0.90869200881134
  H   2.85244992930328      0.60498585638450     -0.58970589052979
  H   3.94112534457033     -3.38082398253963      1.37523821413726
  H   8.94090852886940      1.92590258671209     -1.03851839492757
  H   8.43113282093281      3.03359439683958      0.25917039850620
  H   7.63337702891528      3.10486734587101     -1.30595520971260
  H   5.73684021951894      2.91081745597584      0.78607914442406
  H   3.99602093920385      1.19236756513907      1.26487570075214
