28
Coordinates from ORCA-job 2546optt
  Br  1.15999254847054      0.14080266476402      0.26670907164179
  C   3.03483822359652     -0.04081696659228      0.06196380727845
  C   3.80870392227575      1.07575000910200     -0.15290931121067
  C   3.54904930483675      2.55587235877561     -0.12783584488239
  C   2.47436366414143      3.59846811423576     -0.38720695702292
  C   3.38879866545292      4.88458910746599     -0.33030042853433
  N   4.78830544846890      4.43137860059718     -0.63563377248030
  C   4.63678466455831      3.05735702038690     -1.07504441892760
  C   5.85544596253138      2.28086945703130     -0.63040010025042
  N   6.37160690518442      3.15106956397840      0.45966286459660
  C   5.74234285618590      4.26484053328351      0.37664951549936
  C   6.07835257348886      5.36380286256777      1.33103563953278
  O   5.55359010390964      6.44137462122399      1.30760467246054
  C   5.21057347451484      0.93464327490321     -0.28068442788984
  C   5.80318544443956     -0.30657292399462     -0.19249605619269
  C   4.99766536322477     -1.42622584441803      0.02074697039830
  C   3.62374026391512     -1.30166851349741      0.14102889739523
  H   3.90334875039346      2.81311885232773      0.87835293094799
  H   1.69182088662319      3.63994008330365      0.36686008778737
  H   2.01144166498768      3.48852804378592     -1.36840711215406
  H   3.35950850227138      5.35130255527194      0.65195140954022
  H   3.08513540419091      5.62563783909256     -1.06551553487029
  H   4.34761820213031      2.95391243501365     -2.12108488092922
  H   6.65105637917114      2.15922674455988     -1.36721775398489
  H   6.85694267596307      5.09091907146544      2.06114136056905
  H   6.87541902050691     -0.41440166000960     -0.29660698622913
  H   5.44566648702256     -2.40894559608419      0.08669457824276
  H   3.00370263754374     -2.17277230854032      0.30194177966832
