30
Coordinates from ORCA-job 25476optt
  C   1.14204840683098     -0.00192821337180      0.79699406079508
  C   2.32533591293908     -0.14192623089170     -0.13166375335213
  C   3.64990668640171      0.04091342112908      0.59329258872710
  O   2.23362604532062      0.90594080122205     -1.13794606465989
  C   2.71237823166403      0.38798214490393     -2.29963697137449
  C   2.85610469239549     -0.98714857850855     -2.26322939657686
  C   2.34996787458015     -1.47574513984055     -0.93581904678795
  O   1.10255627192022     -2.12947048494257     -1.04205442379758
  C   3.33101790947204     -1.66332740198112     -3.37186069062933
  Cl  3.51259852742713     -3.38504518731439     -3.30811063589325
  C   3.66932828482961     -0.97129092928383     -4.53870932402763
  N   4.10004037328232     -1.62516374712018     -5.68379178451926
  C   3.49972298940097      0.42801121047600     -4.54909428876889
  C   3.83679664642858      1.17812291046822     -5.80819720604486
  O   5.19853383295467      1.02150044457126     -6.19721416442168
  C   3.03262783214357      1.11283812420714     -3.43331865566440
  H   1.18956198627363      0.95973735203376      1.30813554041272
  H   1.15695777384582     -0.80002509961282      1.53921540938227
  H   0.20575457851109     -0.06549880308892      0.24651855594856
  H   3.69574645663409      1.03474191835605      1.03733603501083
  H   4.48441175345809     -0.06952900231464     -0.10210249551861
  H   3.75647545559615     -0.70375605025581      1.38331070750348
  H   3.01682307426651     -2.19192214983435     -0.45453986037096
  H   0.57160320404269     -1.68169049220888     -1.70972414422272
  H   4.36538029072991     -2.58809807332564     -5.54840903788904
  H   4.76380828371240     -1.10058163166522     -6.23608341935748
  H   3.58946244550732      2.23580220271273     -5.68833330510778
  H   3.25541145216333      0.78509642498236     -6.64469407964938
  H   5.75786851510464      1.30462824305371     -5.46668831435726
  H   2.91614421216312      2.18883201744470     -3.45558183478854
