28
Coordinates from ORCA-job 25474optt
  C   2.05454767551705     -1.59158973656010     -0.73432358090418
  C   2.77062277233136     -0.41790229920017     -0.06557983170594
  C   3.19510016725751     -0.73887582320137      1.34192815874593
  N   2.17303244269853     -0.79703547746398      2.26058053304871
  N   4.42684092802768     -0.91538115236587      1.60635774334782
  C   4.77597812309631     -1.21222166232493      2.97997032824955
  C   6.28309687887230     -1.35285375296723      3.08609931467404
  O   6.95405963833100     -0.64917633921846      3.79331966941711
  C   6.88941682625605     -2.44531903045274      2.26493657463928
  N   6.14430990412196     -3.46383161728306      1.95385627535979
  C   6.61895927962366     -4.50595817046216      1.28855186122802
  Cl  5.58212307110148     -5.84367547528769      0.92427930873066
  C   7.93653983733163     -4.55259753187911      0.89375397519940
  N   8.53245196455594     -5.55824954288735      0.24550173467068
  O   8.72908916888856     -3.52936334521194      1.16667800168799
  C   8.29039790783974     -2.36129943727982      1.85677497334796
  O   9.08547243752705     -1.49480260995927      1.98455649967100
  H   1.79659485901152     -1.34617307349343     -1.76417308104424
  H   1.13040239142236     -1.85473471955952     -0.21655688495316
  H   2.69675426698308     -2.47288620120611     -0.74201492541445
  H   2.12096829662558      0.46151833913173     -0.05200283623105
  H   3.67183134399535     -0.16042573421997     -0.61731559252873
  H   1.22848413957446     -0.84121988417350      1.91934542503365
  H   2.33345830131762     -1.23976695211461      3.14950849181521
  H   4.31909543703950     -2.15166658200897      3.32278458264346
  H   4.48572112532206     -0.40854085107153      3.66480819533421
  H   7.99799497045367     -6.36616431313811     -0.02263154140002
  H   9.49565584487691     -5.46780702414071     -0.02799337266273
