32
Coordinates from ORCA-job 25484optt
  C   1.15694672080280     -0.02838386105309     -0.06083125473720
  C   2.65447343579328     -0.08784658775374      0.21247052900493
  C   3.06567866330884      0.43121000588956      1.60294338040618
  C   2.64807298039263      1.87726385846909      1.81811946990574
  O   2.48153653874092     -0.37967166596350      2.63430672238317
  C   4.57630341418190      0.26390793857266      1.71774851607430
  N   5.30102720030172      1.36326749867666      1.53412228117253
  C   6.61035339338725      1.23849626346097      1.55202326259272
  Cl  7.51967184237800      2.69086739773969      1.29679768160863
  N   7.30359091176292      0.13599931757584      1.74374814517053
  C   6.59267783788045     -0.96875903187655      1.93001255072065
  C   5.19737105020971     -0.97432637168942      1.92066939692626
  N   4.46527968383778     -2.14433034012439      2.13047880242780
  C   4.84642275954330     -3.38705692214999      1.65142004318226
  O   5.86657142820981     -3.58313036311019      1.02625539186703
  N   3.94218260753532     -4.37621993368322      1.92702027312793
  C   4.28107646798176     -5.74983157739761      1.61239567835971
  H   0.93286990236631     -0.48672227927675     -1.02369877275729
  H   0.79021897790565      0.99728461551905     -0.09153230064205
  H   0.58867206589742     -0.57625301361549      0.69424249243650
  H   3.19490499518746      0.50159329885073     -0.53193054842735
  H   3.00672191408015     -1.11801184268120      0.11636606580227
  H   1.55820039777713      1.94167228295781      1.83196455258642
  H   3.02713424082692      2.51695854932989      1.02436346585313
  H   3.03583139589648      2.24386841931126      2.76719375494199
  H   1.55243776515304     -0.14319510752984      2.71456781018121
  H   7.13943738063255     -1.88828097159030      2.08335432026734
  H   3.50811215882400     -2.00366048878926      2.42164161270615
  H   3.27885071491566     -4.21244243207515      2.66556436644331
  H   4.69645631295247     -5.78743326711569      0.60874587658294
  H   3.37699547050860     -6.35387944883314      1.64706771367684
  H   5.01991937082760     -6.16195394004460      2.30338872015537
