29
Coordinates from ORCA-job 25487optt
  C   2.85733516612767     -0.60982909677627      1.12978941599684
  C   2.48867950092050     -0.32113620674170     -0.33073336929136
  C   1.03026804012154     -0.23169722038831     -0.44687463606394
  C   -0.16237458739909     -0.11516255021204     -0.49662454125356
  C   3.10957691999016      1.00172157473108     -0.86123412079187
  C   2.69531916069945      1.26419347212244     -2.31122477661166
  O   2.70614371010358      2.07011061630644     -0.02610324313273
  C   4.63019520884053      0.94623561254979     -0.81967906868127
  N   5.20454799566950     -0.25518229377561     -0.81569786499810
  C   6.50481431120778     -0.36752557580982     -0.83371049725980
  Cl  7.20681821930643     -1.96379060205699     -0.82351785626647
  C   7.37236855985729      0.71285230086554     -0.85630508943134
  O   8.72502380856194      0.64963721723870     -0.86450631518826
  C   6.79472181542637      1.97006225499738     -0.88766165668360
  O   7.53976021662413      3.09958521296788     -0.93971296845296
  C   5.40891302316053      2.10543462535919     -0.88975286823857
  O   4.86893607019500      3.33666790432467     -0.99344173572539
  H   2.32393009386182     -1.49369222652893      1.47683776434217
  H   2.57638896288231      0.23454005159452      1.75753784520052
  H   3.92572784542844     -0.78623515405613      1.22597469141225
  H   2.84260988140772     -1.13794393462438     -0.96245631726267
  H   -1.22189050317279     -0.04070136776109     -0.55550180859719
  H   1.61100500259481      1.35348925020333     -2.38430014230308
  H   3.02060646254195      0.44368793858561     -2.95290157041034
  H   3.15134480660159      2.19242236612462     -2.65418454695910
  H   1.74226781921863      2.11468625508844     -0.05723792297185
  H   9.00405075574068     -0.27605977858439     -0.85640733536773
  H   8.47661001845734      2.86366943992829     -0.94867673292939
  H   5.58530171502416      3.98395991432773     -1.03069273207953
