26
Coordinates from ORCA-job 2548optt
  Br  1.19645813498700     -0.31267575803449     -0.17522382541204
  C   3.05600191014817     -0.04298085033454     -0.03487079211790
  C   3.61169003817718      1.18881942713012      0.08028902604113
  C   3.02823628567529      2.51305380066131      0.13184979542005
  C   3.79742021169580      3.65852533681388      0.10302065741641
  C   5.28699702188359      3.63969394499759     -0.03096519070879
  N   5.78816204348672      2.32009375348527      0.31706756177869
  C   7.19234784682694      1.98047122111468      0.06180915010937
  C   7.25708804730424      0.45124560600219      0.27055873901048
  C   5.81357660446444      0.06105849498987      0.09778888307562
  C   5.04440560639093      1.18657841304560      0.14952489035119
  C   5.22308034337876     -1.23081058650210      0.01607978808648
  O   5.76529296437852     -2.31989561416505      0.00272305911640
  N   3.80404272622281     -1.17228593113680     -0.06457334765669
  C   2.86785029714251      4.70923165512463      0.19631718905893
  N   1.62970712389804      4.25172464628751      0.27851522379230
  N   1.74474209905941      2.92208796722167      0.23846669456493
  H   5.74809219507813      4.37725762915928      0.63019758707664
  H   5.58964420760579      3.89475087423493     -1.05818765194829
  H   7.84991649043939      2.53929484479914      0.72658964700706
  H   7.44192066686730      2.24466187281410     -0.97426597109184
  H   7.60354511280205      0.20337546116436      1.27708381211529
  H   7.92529521783702     -0.03693615379494     -0.43646103753555
  H   3.35132930760604     -2.07251292665820     -0.13646978495019
  H   3.04623584485092      5.77279516027591      0.20840438755472
  H   0.91992165179293      2.35037771130406      0.29973150984561
