24
Coordinates from ORCA-job 25488optt
  Cl  1.00795812968028      0.50401492279047     -0.37816039583276
  C   2.69181083419354      0.28890944110207     -0.11347914387066
  C   3.53682792704645      1.32928714685176     -0.13262658858143
  O   4.84423374074805      1.18553093688432      0.05260426657648
  C   5.38421091218701     -0.07863919371845      0.22969268055885
  N   6.64313812713971     -0.10850136376197      0.30496336303508
  C   7.34724766318416     -1.27907885923329      0.49052303647879
  C   8.71611417401258     -1.32570192595475      0.57095152632112
  C   9.16349511608073     -2.65102933425135      0.75893628197899
  N   8.23800584073162     -3.57700539709523      0.82303957512596
  S   6.75492984988401     -2.89877199390491      0.66440601386358
  N   4.53199416779287     -1.15473531612901      0.31071546626678
  C   3.26191178909375     -1.01312548321101      0.15280388335616
  C   2.37264937745926     -2.21724225566500      0.23858797574372
  C   3.08397391707707     -3.45572724507861      0.77817147264053
  C   3.43582111427384     -3.28776783501290      2.18807711186661
  N   3.66653574970608     -3.13020315279419      3.29885767814630
  H   3.24001344128047      2.35675212164977     -0.29339546542199
  H   9.33950875782041     -0.44807939918321      0.50101948581112
  H   10.20160081267468     -2.94499330871645      0.85221199207807
  H   1.98311887224867     -2.41545971540526     -0.76478498798193
  H   1.50443418969594     -1.96938358512798      0.85259792699079
  H   3.99551185935967     -3.65588069254127      0.21505621332618
  H   2.42995363662907     -4.32316851249350      0.69123063152363
