25
Coordinates from ORCA-job 2549optt
  Br  1.76623104207711     -0.18330579057750      0.68220025025829
  C   3.42179778914942     -0.24130902410987     -0.22186540894237
  C   4.27253398172918      0.83626928489041     -0.16442362494391
  C   4.21061404983849      2.18103464540713      0.47150324285794
  C   5.49679257449827      2.26199410958618      1.34387344803046
  C   6.39515263196727      2.85173168189927      0.29707018294068
  N   6.35736685723112      1.89444364246349     -0.83497726816266
  C   5.51996441003854      0.78071862212659     -0.84703445364491
  C   5.77324391916394     -0.39859964332039     -1.54852530069882
  Br  7.40984444616444     -0.57156143539579     -2.50665232136021
  N   4.94323437748724     -1.41163187274012     -1.60872321149129
  C   3.78623822366159     -1.36019961784027     -0.96393373534987
  C   5.67567622812865      4.23267191500467      0.04980985580911
  O   6.17496736763737      5.14390093527274     -0.52567167142141
  C   4.18975564461939      4.48286894895480      0.74511324753256
  O   3.89334059488652      5.60242135057524      1.00091725567105
  C   3.26044002669002      3.24447352430536      0.97688846043085
  H   4.45431154912888      2.69732637513641     -0.46519236433600
  H   5.82194721358673      1.28750733432802      1.70109735256355
  H   5.37454817865693      2.92285618741428      2.20153660974919
  H   7.43279230371803      3.04527895516576      0.57188727129764
  H   7.19765886858453      1.81197723211590     -1.38486148732551
  H   3.13623480901809     -2.22271954435973     -1.03213385817645
  H   2.36199318752059      3.37644949612313      0.37279275932358
  H   2.97831972481760      3.18240268757430      2.02730476938851
