29
Coordinates from ORCA-job 25497optt
  C   1.31237803935401     -0.59258750498194     -0.07975708503621
  C   2.56804981499720      0.27990350540155     -0.17039827827175
  C   2.96809024047773      0.80038608009482      1.18457676577273
  C   2.38557469176480      1.88645398929660      1.75926904498406
  C   1.36833814810849      2.56137627715308      1.00757655884885
  N   0.55331440331164      3.05864030104624      0.37041278880523
  C   2.73960250317807      2.38269199218325      3.07203329865589
  Cl  1.87945731313974      3.79755763037760      3.56371194508949
  C   3.65210675335138      1.83731235099194      3.90862034761736
  C   3.98633123972301      2.37977083985876      5.27676977989283
  C   3.21903337116812      1.62275896996172      6.36234838347323
  C   5.51430090120170      2.43270779127468      5.44076499216117
  C   6.10881357001722      2.02918429350917      6.76117398549157
  O   6.18431788962966      2.84841176730956      4.53221152518890
  C   4.35105438498093      0.59400180875555      3.59029088947513
  O   5.07900371066406      0.02035162175962      4.36305389822495
  S   4.15943048676662     -0.13869045941311      1.97538606858963
  H   1.06000404800910     -0.98406155666909     -1.06423217794075
  H   0.46590414677478     -0.00970366764914      0.28262806765495
  H   1.47305530807199     -1.43320156817223      0.59569974131399
  H   2.38422600524670      1.12763135590280     -0.83183378354295
  H   3.39437748214355     -0.29475410432155     -0.59121604620320
  H   3.68878183246640      3.42983788870297      5.30687556597848
  H   3.47552219892509      0.56374316037647      6.35459572224912
  H   2.14687664930726      1.72284391231602      6.19120236379320
  H   3.43833520139806      2.02630309243690      7.35031386822451
  H   5.70286172566797      2.64667420035071      7.56525690781827
  H   7.18816682686322      2.14352123237978      6.71667021867993
  H   5.84869111329145      0.99193479976726      6.97699464301135
