24
Coordinates from ORCA-job 25490optt
  C   0.95838010059870     -0.19227164775833      0.14583344115549
  C   2.45117463026422     -0.12910257395722      0.08831243517675
  C   3.22367226982342     -1.25189328189478      0.06567767321801
  C   4.63621999179741     -1.11598852722550      0.04044980039243
  Cl  5.60089159140223     -2.54547471462234      0.02198055535018
  N   5.27928126391435      0.00154475916495      0.03294942054312
  N   4.50979738226583      1.09882485766919      0.04560545147994
  C   4.99967840270710      2.37723369530770      0.02929796688436
  C   6.42460535447601      2.68268279282784      0.00101883035164
  O   6.84677255138141      3.81311889861322     -0.02138234363611
  C   3.90219338582081      3.22755604561318      0.04025899144529
  C   2.73121365270649      2.46825773651511      0.06898528884905
  C   1.33609290529614      3.00840475045139      0.03735434643264
  O   0.65950644885502      2.73642596828710     -1.18272574481499
  C   3.12294808291408      1.12113061169704      0.07243796398266
  H   0.61498349688496     -1.21783126384001      0.02770650089878
  H   0.51535972769006      0.43546338619079     -0.62816841979118
  H   0.60568650773025      0.17836108921482      1.11044989331490
  H   2.78910236959949     -2.24062699111946      0.07190581535572
  H   7.09914206970608      1.81246940298207      0.00089084104998
  H   3.97617349727207      4.30405499784376      0.03235893184752
  H   1.37451333951953      4.08528823934641      0.22490032244737
  H   0.71599092221891      2.56397920267079      0.81538187773956
  H   1.20962005515541      3.04639256602228     -1.90947983967313
