27
Coordinates from ORCA-job 25494optt
  C   0.72439069194603     -0.03312986596743      0.12572261292211
  C   2.23176119811304      0.02896269765324      0.15726577283808
  N   2.84231394650673     -0.24561495055038      1.42384977085395
  C   2.81122387139721      0.55004810902030      2.42773283635076
  N   3.39581108641826     -0.00368023275877      3.58559724485818
  C   3.47827048081999      0.55921997477978      4.81022417535531
  O   4.06469214801801     -0.14070898260050      5.79438886622860
  C   2.98066856193288      1.80437259022827      5.02504321517511
  C   2.41165371978950      2.45969023937481      3.91007873669791
  C   2.32602492001505      1.90120538511704      2.67311538946547
  Cl  1.67351767332337      2.85698014404440      1.39033253122629
  C   2.98413743696294     -0.58176198468596     -1.02121375336583
  N   2.33805657648634     -1.15768662806445     -2.16446264298876
  C   3.00103949712350      0.89581180598493     -0.80516729844703
  O   4.15887318281161      1.55403444374270     -0.40721640920415
  H   0.39125690238137     -1.06078468624149      0.29310543306862
  H   0.34012971900647      0.29655113108697     -0.83992259670760
  H   0.28279138019149      0.59635142782877      0.89651390414592
  H   3.73464542758864     -0.94250015491271      3.41557529915374
  H   4.34609150807821     -1.01365815986173      5.50138582797020
  H   3.04499858572192      2.25801333147642      5.99963373843190
  H   2.03225244716239      3.46596625150308      4.03498521794649
  H   3.89908748036154     -1.07962854763063     -0.71273661247683
  H   1.93355921197470     -0.45987050751225     -2.77324315364260
  H   1.61682893329187     -1.82130435443224     -1.91180457412793
  H   2.42098695888068      1.50945616816989     -1.48625233452458
  H   4.49793645369620      1.10666535520792      0.37646880279662
