30
Coordinates from ORCA-job 25505optt
  C   0.79780381395749      0.18657364151328     -0.42183918662562
  C   2.14605289601837     -0.45104226390474     -0.13166290373293
  N   2.75883364281342     -0.97925431839342     -1.35542751535484
  C   2.65501928628830     -2.30915046136576     -1.65946159201447
  C   3.18888607008100     -2.77349167599633     -2.82529915649069
  Cl  3.03705337471926     -4.46409362160525     -3.17560417542026
  N   3.83206277627234     -2.02146051912408     -3.72747638073717
  C   3.93492991783384     -0.74833944087406     -3.45104762500571
  N   4.54529999028731      0.19565193129795     -4.19494184706679
  C   4.39375351634850      1.32214442448154     -3.50114328591007
  N   4.87130657720486      2.50199741845686     -3.95107478848744
  C   3.65747340154016      1.18947838745780     -2.27490393366431
  N   3.36503879482262      2.23574598011835     -1.38457552784741
  C   4.09161886751844      2.49601188683198     -0.23251224276538
  C   3.57862988890590      3.66994219033494      0.55216531779205
  N   5.08533194462646      1.82237561796152      0.18284541318734
  C   3.36842194133213     -0.15933284035119     -2.22296422210890
  H   0.37904519149979      0.60213621093783      0.49455413460726
  H   0.09950302199514     -0.54899404206690     -0.82166116812790
  H   0.90884977744191      0.99061543600120     -1.14860130012323
  H   2.04678298761148     -1.28412942734739      0.56229666446172
  H   2.84484882138553      0.26500449014081      0.30035521470848
  H   2.15102414842714     -2.93960376657249     -0.94508544581294
  H   5.51558521701227      2.47058378076550     -4.72366379391200
  H   4.95537131522883      3.26365723240555     -3.29980208293832
  H   2.60924326159764      2.86567059941236     -1.60541065804825
  H   2.55067233659795      3.48930569955543      0.87475013665718
  H   3.58157087324873      4.57410016597128     -0.05991547817524
  H   4.20938100702656      3.82023632673859      1.42225077570198
  H   5.31260534035660      1.06566095721881     -0.46414334674608
