25
Coordinates from ORCA-job 25516optt
  Cl  1.15680840944377     -0.36629594362265     -0.77229673817405
  C   2.80702550317447     -0.07314206768595     -0.35966025841993
  C   3.22648694375107      1.14209864008458      0.04588959080490
  N   4.54492239647152      1.30356322592403      0.37402371176262
  C   5.48323233770286      0.28554970390836      0.30559848268941
  N   6.72630822847537      0.36443975386086      0.57523528007049
  C   4.89053809221372     -0.98092612645991     -0.14335973348737
  N   3.65717595533785     -1.14023334689232     -0.45204056491289
  C   2.34613637283206      2.34574750362199      0.22724274840680
  O   3.12971590376361      3.50658235196352      0.01709615565206
  C   2.40853944006231      4.70910108672138      0.25119927799173
  C   2.15715545177634      4.91845897631078      1.74174076071685
  C   1.63700680469103      3.63948467194298      2.31658792629421
  N   1.06952591216669      3.50868296333329      3.49236909166779
  S   0.70644639413611      1.93773720518254      3.68452941504343
  N   1.26320115201158      1.37858107281018      2.26734544852771
  C   1.74332404116970      2.40637705306455      1.61318802442067
  H   4.84674893558846      2.24354453567541      0.59280967729278
  H   7.00574204510655      1.29668940115922      0.87318621351608
  H   5.56855479883639     -1.82383554801428     -0.21819695053823
  H   1.53951078575958      2.29730621981038     -0.51293030426594
  H   1.45892433537148      4.67091169541255     -0.29503037832336
  H   3.01273242971605      5.51177109140808     -0.16544894629673
  H   1.44730731563832      5.73016175284923      1.90439319781410
  H   3.08893001480312      5.18864412763118      2.24352887174683
