34
Coordinates from ORCA-job 25527optt
  C   0.95158150482628     -0.07984603396987      0.42116793976241
  C   2.42366151635198     -0.00622231055861      0.04346443890073
  C   3.18530021846197      1.07217024846965      0.84265765877453
  C   4.55360315245555      0.46353002851187      1.17383306611206
  C   4.15315233059057     -1.03506918974178      1.31509696896149
  C   5.27454152875075     -2.06205008491618      1.31005572867479
  O   6.08799309048051     -1.92572423719717      2.45671933129592
  N   3.11816489704314     -1.27283973089900      0.31039224861664
  C   3.45662159740775     -2.02262165603404     -0.88621637859576
  C   5.61936485757160      0.72672516759710      0.13938394757477
  C   5.40394701092422      0.95197445922925     -1.16872070711960
  C   6.44920975674069      1.17024074059544     -2.12822187735072
  C   7.76501297486503      1.13921164569112     -1.85483282896575
  Cl  8.90787810956843      1.40434815527233     -3.12783990972619
  C   8.35248343928685      0.87550977713460     -0.53808734254091
  N   9.57212942356061      0.77018688355741     -0.22166212353610
  S   7.21793299144608      0.72471055036651      0.81847039063927
  H   0.45345688933384      0.87645901186885      0.24706313006516
  H   0.85674803783379     -0.33606749763452      1.47783462081220
  H   0.44126464183465     -0.84764273092719     -0.16122525738144
  H   2.49086809592998      0.21304664240124     -1.02907781628888
  H   2.65938396053978      1.26500663090390      1.77988647455265
  H   3.25649347212776      2.01725352119600      0.30516842315649
  H   4.91945497319544      0.82893625145450      2.13556781297326
  H   3.68928049464115     -1.10819081278075      2.30620329775832
  H   5.86652146393562     -2.00035118339348      0.39103232981981
  H   4.83266084335359     -3.05871972231099      1.35400499762437
  H   6.82642912036310     -1.34349324754700      2.25218136351175
  H   3.83657326745272     -3.01014272749925     -0.62877245305332
  H   4.19083525631915     -1.52592971749636     -1.53568261335591
  H   2.54328350902586     -2.17504752490243     -1.46290822085624
  H   4.38595314781541      0.97468681870634     -1.53288528620358
  H   6.15620123012835      1.36793726290047     -3.15171966487349
  H   10.17801319583766      0.90902461195204     -1.02833168973873
