34
Coordinates from ORCA-job 25526optt
  C   0.77403783345499     -0.47912869749440      2.27124813722078
  C   2.28055899022028     -0.34732309994183      2.45306918276892
  C   2.94646937650599      0.52959918135459      1.38515376258868
  N   2.44921816543474      1.90815618501159      1.35204484211132
  C   4.47932057216752      0.45019130817970      1.52785077687515
  C   5.32500881535758      1.14790437634063      0.44656823509389
  N   4.72660546490405      2.12893762661631     -0.25307515364549
  O   6.47473027761738      0.79486045685804      0.26071538302495
  C   5.01760157116859      0.86843691202253      2.88689446146343
  N   4.49281395680883      1.97267042295185      3.42260362035296
  C   4.92333085167595      2.42933244821715      4.59308562869661
  N   4.38834063065746      3.60161664555768      5.05726542409421
  C   5.92201345376298      1.74308817903036      5.29411744441718
  Cl  6.46275428885535      2.33529453545637      6.82819258661522
  C   6.46169509547554      0.60246501306588      4.74773953778733
  C   6.02314519926752      0.12964086916603      3.51451327101978
  C   6.62380055000228     -1.11353357995537      2.91826934890826
  H   0.35215943897130     -1.17132417163413      2.99969392308955
  H   0.52895233901274     -0.85291035415204      1.27459500308707
  H   0.26759253651664      0.47779389624327      2.40710852588268
  H   2.73871084901179     -1.34049489672405      2.42133847647541
  H   2.50176971577867      0.07085291239321      3.43888497650123
  H   2.71313172005924      0.09617069555127      0.40584086290954
  H   2.67775705397149      2.36321412704069      2.22966222779808
  H   1.44605007010452      1.91954538936713      1.21899786803740
  H   4.73216162985419     -0.60183340177143      1.39447508775530
  H   3.80579020076937      2.45048919156182      0.02879627310029
  H   5.28891910558994      2.63098444578017     -0.92007152941856
  H   3.54620938326066      3.90982073121521      4.60223486619817
  H   4.48200830898723      3.81418741870363      6.03562001171313
  H   7.23808256029253      0.07523919494283      5.28874396680869
  H   7.43250576794477     -1.48032174608216      3.54881814629216
  H   7.01694757779542     -0.91270410723323      1.92200521415603
  H   5.88180664874237     -1.91191810763932      2.83499961022060
