23
Coordinates from ORCA-job 2552optt
  Br  2.12740135995140     -0.40327373489634      1.34311102716627
  C   3.55531567701184     -0.28014761239915      0.14140998589544
  C   4.35093722260212      0.79332670942639      0.08386271748935
  C   4.47122911115591      2.10006461675931      0.77483482948683
  C   5.91259244089592      2.12819593765317      1.34263881877529
  C   6.49212317181703      2.91747701914134      0.20121846964884
  N   6.31559001145819      2.02295436892014     -0.96362880378496
  C   5.48391679376780      0.85808071919375     -0.87168302411134
  C   5.67391383292482     -0.22023756256316     -1.64010248582473
  O   4.85369832376954     -1.28961982391747     -1.60582019727939
  C   3.78671966595183     -1.42796946119170     -0.74543864145158
  O   3.15491189967498     -2.43736023350219     -0.77581092878767
  C   5.56273255386985      4.19887555678359      0.25840904367844
  O   5.75248158787909      5.18919649996309     -0.36566786901317
  C   4.28409026752277      4.20150535927480      1.31080154341351
  O   3.92324271297050      5.19962789206801      1.81975549300542
  O   3.67529926090600      2.97597183125692      1.55224502114824
  H   4.47167829940268      2.64937085968785     -0.16960784117460
  H   6.36438719452624      1.14694852601361      1.46496708450547
  H   5.93606714511461      2.65619609716552      2.29334929244739
  H   7.53177748260664      3.23749281769252      0.27576194910355
  H   6.32315066093646      2.47390915337920     -1.86609395479659
  H   6.46574332328371     -0.32658553590925     -2.36751152954002
