26
Coordinates from ORCA-job 25529optt
  C   1.09342547629591      0.16699920672871      0.43533081163651
  C   2.50830481397057     -0.02990669155533     -0.08461108425449
  C   3.52096296411731      0.97337021478607      0.54907423719813
  S   4.10333613085998     -0.36994762560469      1.57528644305471
  O   3.50959325631783     -0.35555579065846      2.87773521450159
  O   5.48889456021263     -0.66391422787180      1.43442346690878
  N   3.16716176668303     -1.23847869140857      0.48619481261886
  C   2.59542408555650     -0.02514762240725     -1.59923035703074
  C   1.81518194840448      0.75121082406589     -2.39285525032466
  C   2.06661464212603      0.74544428722078     -3.79032570483934
  Cl  1.07384402753467      1.75669256719484     -4.76332117814660
  C   3.04476435661036     -0.01529762070486     -4.36415308820900
  C   3.31175994366072     -0.02102767215074     -5.75804900347198
  C   3.55020735290339     -0.02937259636851     -6.93244888877547
  C   3.86117272232780     -0.88892390363352     -3.51368882970207
  O   4.71577944247059     -1.65010056692894     -3.90019793460602
  N   3.56927042604779     -0.78650956933250     -2.14987304724637
  H   1.10218853325680      0.13537179326356      1.52538258692953
  H   0.43702038431518     -0.61750229556167      0.05730516641285
  H   0.69231286013025      1.13059964105890      0.12499942175923
  H   3.07650272503436      1.78801927364929      1.11305172107622
  H   4.29942383569226      1.31730895677506     -0.12700323679768
  H   2.56952283436060     -1.96417059017186      0.86987094756675
  H   1.03087471741291      1.37284951722188     -1.99520916650602
  H   3.76819231768074     -0.03761408800397     -7.97370773194805
  H   4.10526387601727     -1.39539672960229     -1.53998032780464
