30
Coordinates from ORCA-job 25543optt
  Cl  3.27235674716572     -1.12183740207167     -2.92934795678449
  C   3.81225660288524     -2.62867374150988     -2.24923182013593
  C   4.53808976423004     -3.48015721068845     -3.06961059351617
  C   5.00176330993936     -4.68499744402853     -2.56777397834121
  C   4.74088187695589     -5.02726182070236     -1.24897953482821
  C   4.01978487325697     -4.15984788640406     -0.44344177128423
  C   3.53301240178204     -2.94071161597781     -0.91941165228115
  C   2.73340457517853     -2.04600014755629     -0.01056357239332
  C   1.22445720788580     -2.21532136104128     -0.11862681337946
  C   0.33830017014205     -1.36188599649699      0.79801698301366
  N   -0.72107886383652     -1.36993791460987     -0.25558048083296
  C   0.39119777852236     -1.54453518100197     -1.24568804331300
  C   -1.44813831405249     -2.64067834000778     -0.12547136933709
  C   -0.55189338679843     -3.87185080605364     -0.35579665673186
  N   0.82860558870515     -3.61129427093080      0.08406432544745
  H   4.73702653597694     -3.18926846848706     -4.09194805375958
  H   5.57061824480137     -5.34779330818429     -3.20612413241780
  H   5.10383280953964     -5.96358803318387     -0.84624755783532
  H   3.81807284230262     -4.42169071094317      0.58890865811377
  H   2.97348721538742     -0.99824285118686     -0.19987724031739
  H   3.01089460350609     -2.26972784342781      1.02236295365215
  H   0.71785998826827     -0.34763161578349      0.93523873701777
  H   0.05057743712557     -1.80126641287138      1.75386390657195
  H   0.78084695799321     -0.56740899104588     -1.52550904562481
  H   0.14926387694688     -2.11341280848323     -2.14384211558912
  H   -2.26816560072802     -2.65720052149220     -0.84549430277420
  H   -1.88965403044153     -2.65792529159516      0.87210871461305
  H   -0.57648861896079     -4.12332026919499     -1.42135645460454
  H   -0.94800143063572     -4.73328303038271      0.18333557868181
  H   1.45482883695631     -4.22024870465648     -0.42997671102977
