23
Coordinates from ORCA-job 25545optt
  C   1.14323811031369     -0.03223067889533      0.05912188184295
  C   2.62918449243059     -0.15074682837513     -0.22879801616522
  C   2.90527412178739     -0.89409297121742     -1.50206570223807
  O   2.09999274143121     -1.33003732427806     -2.26456324442109
  O   4.26364937932606     -1.01315198850915     -1.69552808034661
  C   4.69346557295471     -1.75141200496160     -2.74592725582035
  N   5.93039236987264     -1.80390346604656     -2.96099468685318
  C   6.36177896253054     -2.64126109150401     -3.99705776679695
  N   7.53889926855293     -2.33188088669319     -4.52936197745559
  C   7.97663715525087     -3.13775260604254     -5.48950321448105
  C   7.26347568360412     -4.23701101371049     -5.91411533084941
  Cl  7.84521765874970     -5.29872797672333     -7.14251261187852
  C   6.03286005277308     -4.47588166748479     -5.28980184982018
  O   5.25025450772795     -5.50404855305744     -5.61376756209895
  N   5.59611294199833     -3.67990982417804     -4.34048040108298
  H   0.98162963740224      0.51644419124937      0.98548602851034
  H   0.68868593366247     -1.01727829225406      0.15553985810405
  H   0.63230643485176      0.48932324620160     -0.74862009664655
  H   3.16336782071157     -0.66964967756812      0.57059494795351
  H   3.11040321034814      0.82651453055871     -0.31812838329833
  H   3.91358274693568     -2.25293080257908     -3.31358662912626
  H   8.93744885082913     -2.90778387842191     -5.93711659249020
  H   5.66714234595513     -6.02459043550939     -6.31381331454132
