25
Coordinates from ORCA-job 25546optt
  Cl  1.38250111352284     -0.27315408566699     -1.03383360333433
  C   2.98121621745100     -0.09063403106541     -0.39789706532778
  N   3.59502511088147      1.04714242927595     -0.59947601350138
  C   4.82593177321822      1.17139133519168     -0.09743272606947
  C   5.50097741184392      2.49793072096691     -0.31132665661230
  N   6.93566803980515      2.43279915259073     -0.10685878065117
  C   7.57117177392996      3.73477483495444     -0.21648555701120
  C   9.05578675003851      3.57751808958027     -0.07856264046171
  O   9.71156091313749      3.01479263419454     -1.20247637046626
  C   9.98238502101217      4.37542878865968     -0.89544890799390
  C   11.31066679172775      4.69164445292955     -0.42740761796591
  C   12.41034629736508      4.97750063748730     -0.05193591841293
  C   5.41532975693654      0.12215796502395      0.59854540513314
  N   4.78046000906902     -1.03188135593647      0.79163631399853
  C   3.56192376371637     -1.15084416130540      0.29720570998514
  H   5.08616882381809      3.20797397879477      0.41184738917886
  H   5.21277803611489      2.86639518809019     -1.30509399277099
  H   7.35332132428123      1.80928539051394     -0.79224232791143
  H   7.19784568325765      4.37478211215239      0.58761653638365
  H   7.35159578246018      4.23464380469253     -1.17162385400414
  H   9.41694847238753      3.20260002174588      0.87407264098959
  H   9.55900978033692      5.08470228632434     -1.59943261302411
  H   13.39024280421143      5.22328250335931      0.28169803583078
  H   6.41068621648003      0.22454861001564      1.00909465625951
  H   3.03045233299650     -2.08278130256977      0.44181795775981
