32
Coordinates from ORCA-job 25550optt
  C   1.15334128983284      0.40457401418604      0.03517509371222
  C   2.64947704001020      0.07633704752806      0.04623626719284
  C   3.47113757264642      1.36268994257578     -0.01515383593624
  C   3.01085313690702     -0.74859859433943      1.25412878617649
  C   2.83982529954584     -2.11022048159943      1.45449118149343
  N   3.28971358979855     -2.41696619195645      2.74931795969158
  C   3.73227423313031     -1.26942707185528      3.35120462321114
  C   3.56898906967948     -0.24574486492321      2.45443678984188
  C   3.25249326841012     -3.69679170057597      3.24749286077901
  C   3.75479610561250     -3.89858332948078      4.63680929857264
  N   2.80163950989401     -4.68085884735341      2.55066472667510
  C   2.34176119089642     -4.46567681376419      1.27585279069465
  C   1.84070644608012     -5.68953639095364      0.54784296109599
  C   2.80353474154860     -6.19332912739506     -0.43207404716316
  C   3.59443881969560     -6.60147968380435     -1.23327425703975
  C   2.35118304471432     -3.22443826137709      0.71936904613014
  Cl  1.77624318531203     -2.98948401984354     -0.88922577152721
  H   0.89272022063807      0.98698923857129     -0.85081455468875
  H   0.89275814842963      0.99160994893333      0.91885292413112
  H   0.54996228449820     -0.50293283937861      0.04029693579527
  H   2.87639686120716     -0.50628096788427     -0.84742133442959
  H   3.22154291865931      2.02690031764033      0.81525083135062
  H   3.25767056742553      1.90129643914631     -0.93909054940623
  H   4.54132163559710      1.15543877068074      0.02306641577556
  H   4.12567475127107     -1.27835223987523      4.35139525554512
  H   3.83748452314597      0.78108722574856      2.64225711326922
  H   3.17854483938472     -3.29812870354971      5.34418943692186
  H   4.80063972454605     -3.59368064843044      4.71541010110842
  H   3.66207867366421     -4.94974445542483      4.89026729103646
  H   0.90199566547310     -5.46665958414100      0.03651007401913
  H   1.64734201909457     -6.45931548631406      1.29469126166553
  H   4.29745962325089     -6.96169264079042     -1.94515567569450
