23
Coordinates from ORCA-job 25556optt
  C   1.04681134140670     -0.49961519417229     -0.10501502426914
  C   2.53014172018812     -0.24924625253575     -0.06037446559770
  C   3.23161355518673     -0.15671222799641      1.10057020203383
  C   2.58604615022282     -0.05854352691321      2.42914381107566
  Cl  1.11151351681038      0.82372104128995      2.61061206103849
  C   3.18524740787481     -0.51249458284366      3.52827644524831
  C   4.52613445922872     -1.08685967411549      3.45380289772344
  N   5.12742517090369     -1.76164024102657      4.33068967969395
  O   5.23312910872705     -0.78670158363317      2.32973955786384
  C   4.68782492935440     -0.20675007291501      1.21738614314169
  C   5.60449230077520      0.27093716708570      0.35225890512858
  C   5.35888955201708      0.83796734602463     -0.93371243281350
  C   4.27734690517747      0.66625256198184     -1.71307988223752
  C   3.11806274144729     -0.18754554505863     -1.44104320117894
  O   2.53809167411683     -0.71843299681089     -2.36762259874795
  H   0.68412978164840     -1.00751544607458      0.78255397593270
  H   0.84715097002060     -1.11396510719611     -0.97973755314321
  H   0.49172495095950      0.43324913954306     -0.22263067822938
  H   2.72696796273223     -0.42016856163636      4.50274899046623
  H   4.52890914458996     -1.91224876607129      5.13781795168014
  H   6.63150854682850      0.21566473293242      0.69069099364865
  H   6.18264355265858      1.40341174821952     -1.35512429026829
  H   4.27119455712485      1.08523604192232     -2.71195148818990
