23
Coordinates from ORCA-job 25563optt
  C   1.00442099896647      0.03565755321772      0.00659474729734
  C   2.50060244614462     -0.14856665306200     -0.01244342139587
  C   3.23129889885395      0.97682112144779     -0.01641844501125
  O   4.56930822254931      1.04898920712977     -0.02351073892473
  C   5.35872582407790     -0.07376999308894     -0.01571548764587
  O   6.54051652179911      0.06804762062428     -0.02106135700312
  C   4.63071895197063     -1.35408587255132     -0.00415907133223
  C   3.24063815400929     -1.40824002628218     -0.01402712481944
  C   2.64052707022560     -2.73897173276397     -0.02140953623513
  Cl  0.91409057112435     -2.95462544144442     -0.08802525222798
  N   3.29793130138982     -3.84086596721289      0.00717276425305
  C   4.64576753455636     -3.77748332040506      0.03835339339048
  C   5.48377077552315     -4.89255326299046      0.07053267841358
  N   5.07065572254965     -6.18129306892038      0.14782344274792
  S   7.07682705269383     -4.30000818983433      0.07168578513549
  N   6.71027315020186     -2.69844539037875      0.02794545470006
  C   5.39621954385350     -2.56948723117411      0.01987902125115
  H   0.78653153131041      1.10276171279265      0.03771430703145
  H   0.54600022470626     -0.42615246595302      0.87867059754851
  H   0.52728730837530     -0.37986162848121     -0.87845157387644
  H   2.78720633952302      1.96251559291106     -0.01258481303281
  H   4.08735890499708     -6.33013017770524     -0.02761078963596
  H   5.69032295059849     -6.92025238587496     -0.13595458062818
