31
Coordinates from ORCA-job 25570optt
  C   0.78754254771629      1.18707877568285      1.20072075181201
  C   2.30107874551812      1.23580369201723      1.29594342591082
  C   2.91375447747226     -0.13019564122231      1.45345904945148
  O   2.26119645104124     -1.14358129154992      1.50170455339616
  C   4.41895942373275     -0.21064130022619      1.55828138033391
  N   5.10194517838531      0.93182598627195      1.45181753547036
  C   6.40697399418002      0.86089234452079      1.54981845637715
  Cl  7.28766213713723      2.35109896241778      1.40936088023145
  C   7.11913850637103     -0.31407506107879      1.76260310669089
  C   6.41062901805651     -1.50256898713892      1.87213129656224
  C   7.11606997247656     -2.81809672173495      2.06440539377739
  C   7.44932985991884     -3.49655568319835      0.74459340709839
  C   8.46116840104324     -2.78972479808973     -0.12008780939070
  C   7.34978090325026     -4.97172110799343      0.69778505134615
  N   6.36497783365960     -4.13589012812788      0.00899742468299
  C   5.02414481606598     -1.43804088978252      1.76582102473192
  H   0.37967573618304      2.19120338512394      1.09172783520819
  H   0.35714506295542      0.73212141722450      2.09209674176499
  H   0.47193757422069      0.58923180498650      0.34639520106891
  H   2.64156435403803      1.84672638498480      2.13704669982615
  H   2.75700227075347      1.70324966871324      0.41917351836952
  H   8.19749500646639     -0.28849622560416      1.84373643923505
  H   6.48122840103003     -3.48168088478404      2.65577434671771
  H   8.04065360371602     -2.66087936524247      2.62490913645920
  H   9.40977545649636     -2.67296560949033      0.40849154136977
  H   8.10145309445942     -1.80080661228523     -0.40985650692167
  H   8.63385247651588     -3.36305793905424     -1.02927473172489
  H   7.04593226290501     -5.48985081548399      1.59957716852397
  H   8.00626166724805     -5.53223628543908      0.04416363342098
  H   5.49123546590413     -4.10234372562510      0.52458715161742
  H   4.39843530108273     -2.31682334879193      1.85309689658208
