30
Coordinates from ORCA-job 25572optt
  C   2.72331367092011      0.10449018173171      1.48858660384480
  C   2.57673135782797     -0.07991153330719     -0.02106448226115
  C   3.12188921857355     -1.40877897779691     -0.46777657550961
  C   4.25911541293692     -1.51664764570956     -1.25828653208320
  C   4.74508366895900     -2.76421807014830     -1.62424821513281
  C   5.96038599944273     -2.86771671844748     -2.50281513755060
  C   5.57804334611128     -3.05694625749296     -3.97311252147971
  C   4.04555571592644     -3.88525582202376     -1.17139975575946
  Cl  4.61778409667360     -5.45396906926079     -1.60701871362394
  C   2.91432572362899     -3.70771356130752     -0.36563917010068
  N   2.48372399008011     -2.48848887425079     -0.03820564802893
  C   2.10740087685299     -4.78719824754171      0.22930866104195
  N   2.20700395094349     -6.06281904785582      0.04743249450032
  C   1.30353836510060     -6.75286479081179      0.80104883738578
  C   0.50130198844031     -5.97371657029139      1.57833809889512
  O   -0.47507794685407     -6.32292289119498      2.44024349718940
  S   0.86418099557797     -4.31065158089194      1.36048230475268
  H   2.29661378699371      1.05509888712592      1.80823594485995
  H   3.77440261997068      0.08573954561043      1.78048301286968
  H   2.21079698514484     -0.70099163503664      2.01413837030355
  H   3.08896362796681      0.72212510354810     -0.55439928394335
  H   1.52018852091220     -0.03494239861886     -0.29298792509472
  H   4.77642500440671     -0.62371310838100     -1.58843342112008
  H   6.58517386112485     -3.69883341367160     -2.17545423405626
  H   6.54401477929250     -1.95318130692503     -2.39039754513065
  H   5.00317653065647     -3.97276812628318     -4.10722704933346
  H   6.47049013797904     -3.11665085487991     -4.59590020489325
  H   4.97188684135010     -2.21943400077626     -4.32077156065768
  H   1.26768254904440     -7.83251209483037      0.75451971337188
  H   -0.57211567598436     -7.28160712028036      2.44432043674444
