25
Coordinates from ORCA-job 25578optt
  C   3.22855529291133     -1.07929912062725      2.73661002563206
  C   3.67523780721208     -0.48147641693244      1.44990617375433
  N   4.21832129958179      0.67101142418838      1.36960256502991
  C   4.60684346673439      1.12875813364319      0.12096309140663
  C   5.27506048029672      2.48341566327210      0.12295645264351
  N   6.68886381861740      2.42752814809954      0.43050841567386
  C   7.17456168277958      1.97051712489790      1.73661309980122
  C   8.65830906552229      1.72042759736716      1.41634443083363
  N   8.72023225015935      1.53755047614559     -0.04358836708796
  C   7.61171426946572      1.95763245846972     -0.49243893588811
  C   4.41129303580909      0.38257508081475     -0.98927608187544
  Cl  4.84935524678589      0.88008698485086     -2.57039568626743
  C   3.77795154690621     -0.92861398119311     -0.89841324678455
  O   3.52886250713278     -1.68440184002392     -1.78063521943171
  O   3.44167700997221     -1.28518149298085      0.39984851120399
  H   3.43937821120162     -0.39045852138035      3.54818741328309
  H   3.74662601367616     -2.02489408436264      2.90044654899358
  H   2.16033363345709     -1.29367627257122      2.69208960395903
  H   4.77871884493352      3.09351540932966      0.87857091743164
  H   5.15343223954951      2.96354737854934     -0.84666629484952
  H   6.66827020995404      1.04891186601100      2.03886334066585
  H   7.00905348227748      2.72639974218471      2.50348996452305
  H   9.06407723237900      0.85206118756282      1.93160668302108
  H   9.27406405784226      2.58499113310113      1.67879394978525
  H   7.36320729484239      1.99907192158391     -1.54798735545700
