20
Coordinates from ORCA-job 2557optt
  Br  0.88597605470669     -0.98659438147649      0.01362559287941
  C   2.73879877844783     -0.65409908395342      0.05230927820236
  C   3.16714721226540      0.65845161754970      0.07572823406609
  C   2.71726576226358      2.07112032202486      0.08671904034230
  C   1.68726843101311      2.91804518970970      0.08061954994147
  C   2.31767756255124      4.28114443270893      0.11003771375848
  N   3.60580904095123      4.28899727002151      0.13201953202440
  C   3.95643486152748      2.93540357878726      0.11920497682516
  C   5.05890793686199      2.14898563278853      0.12635732951578
  C   6.51141015213818      1.86213247177869      0.14569380429037
  N   6.76868387501020      0.58915076679206      0.13320505072393
  C   5.52215009202009     -0.11367902829849      0.10504970409362
  C   4.52790151290373      0.80312054730989      0.10053988516461
  C   5.10137214672368     -1.44479769926955      0.08278198123297
  Br  6.39074977671749     -2.80732184494789      0.08633555534630
  C   3.71290234776140     -1.69484764940266      0.05911990496526
  Br  3.11464221904224     -3.48044244711846      0.03878457279096
  H   0.62742269429220      2.71931323243268      0.06001774465780
  H   1.75336652603311      5.20686749187043      0.11342315731120
  H   7.31211301676911      2.58704958069269      0.16942739186755
