25
Coordinates from ORCA-job 25571optt
  C   1.44855419242755     -0.88077131165839      0.16519256483876
  C   2.32746253158700      0.35177984856608      0.33792552963669
  C   2.91513948329242      0.82048244910600     -0.98362671585763
  C   2.02828504182180      1.64668865605901     -1.85659918059281
  C   3.17203472395568      2.30862580926209     -1.12499123481410
  C   4.29458738480519      2.75422023856016     -1.90538464725233
  N   5.18890579117524      3.08345823526684     -2.54395084643172
  C   3.87739615759064     -0.11653975103609     -1.63446457645298
  C   3.49363494385502     -0.90155680331585     -2.71448028362959
  N   4.28212925160344     -1.76777700179115     -3.34409069484481
  C   5.51571057617345     -1.87972948338505     -2.90889341148133
  Cl  6.54639210480241     -2.99462253594959     -3.74074891124550
  C   6.03820474584666     -1.17061065679303     -1.83450345466052
  C   5.19253859366154     -0.28482647574724     -1.19544201097658
  Cl  5.79794537900387      0.60860526764627      0.14995403898480
  H   1.00423721692810     -1.17629119072841      1.11515524105078
  H   2.02602380519863     -1.72616446327342     -0.21137692868982
  H   0.63949650234390     -0.68572055767729     -0.54176925290390
  H   3.13639556057917      0.14603112305308      1.04166887613824
  H   1.74007926639308      1.17076667091644      0.76139402261255
  H   1.03069945753737      1.86217995225973     -1.49927047208875
  H   2.13196957680314      1.56853950902121     -2.92956937678689
  H   2.94479400088689      2.92678604090907     -0.26734572789088
  H   2.47904357266804     -0.82052128455020     -3.09032320848480
  H   7.06134013905968     -1.30203228472026     -1.51645933817686
