33
Coordinates from ORCA-job 25576optt
  C   0.75683515212745     -1.23807362823587      0.12239424853914
  C   2.27814846943581     -1.25081692541209      0.19775361629107
  C   2.94382184898131     -0.57160176321344     -1.00382682905683
  N   2.59176670776830      0.84182195743684     -1.17246398548306
  C   4.44145541091385     -0.70560971802175     -0.96566704236011
  C   5.18195810478093     -1.10397453083035      0.11497550494168
  N   6.50363469252263     -1.19121113590763     -0.24089450344152
  C   7.60735993392350     -1.49208905730037      0.65343416880957
  C   8.27412995519172     -0.23302493284560      1.18835451142456
  C   6.61389835503206     -0.84170352032798     -1.55001020556866
  C   5.36637225048159     -0.51689957909910     -2.04760082323637
  C   5.12108461707153     -0.11836197809844     -3.43690817721465
  N   4.05786667052407      0.39979377381549     -3.90342144285946
  C   6.26415190050803     -0.35190324893474     -4.35679818269617
  Cl  5.94168481895849     -0.13988408292214     -6.04048919985896
  C   7.51839433379087     -0.64877878336070     -4.00394410876348
  S   8.12138233432918     -0.89938087421177     -2.39875051095586
  H   0.32045491110225     -1.80621537620574      0.94378215161300
  H   0.40950146352045     -1.68284689284029     -0.81258436765392
  H   0.35542779464617     -0.22537332761186      0.18369315974152
  H   2.62947494651320     -2.28424259837262      0.24974923648272
  H   2.60633973869197     -0.75173686245512      1.11558664951087
  H   2.59022222568036     -1.08393809800669     -1.90751321521989
  H   2.98754643727836      1.39685010647706     -0.42172393889274
  H   1.58747365145524      0.97475378785646     -1.17014541120371
  H   4.87877210865951     -1.36660102114087      1.11508466096438
  H   8.32346413396659     -2.11138076568613      0.10924789894782
  H   7.20703056388276     -2.09759078347694      1.46632233566591
  H   8.66623355528620      0.37160554008057      0.37001247844336
  H   9.09989513304959     -0.49378437244500      1.85036611687571
  H   7.55655236847898      0.36870981986104      1.74630830429709
  H   3.39477971014893      0.59999512887493     -3.15413684548270
  H   8.29088570129806     -0.73750625743912     -4.75518625260031
