33
Coordinates from ORCA-job 25573optt
  C   3.22433399184099      1.64818112883464      1.32172754028834
  C   2.79058005800072      0.62681431199928      0.27962990304707
  C   3.15062917113338     -0.79581456043152      0.68525331126472
  N   4.59097744157471     -0.94400575367310      0.76846895345234
  C   5.07649744096733     -2.03662980200024      1.21057398012702
  C   4.22735254223682     -3.21457141207032      1.65625268712411
  N   5.01892366075622     -4.37375024149066      1.99351604663952
  C   4.44020825972992     -5.44374329980806      2.32715128038595
  S   2.68156564178881     -5.61794851530066      2.42846116802719
  N   2.35918500895814     -7.22090938922461      2.88709787027691
  N   3.22668291525023     -8.07592840281156      3.10455306262171
  C   4.59411464788680     -7.82426631828255      3.00718615664826
  C   5.17469620297071     -6.66140221559754      2.66703342947534
  Cl  6.88370339559477     -6.56486999383075      2.60935131242175
  N   6.41448281055793     -2.21581626087556      1.32385639064692
  C   7.35160616032520     -1.21061973550971      0.87686763179018
  C   8.77447030990421     -1.67966797226337      1.11719476231788
  H   2.97890195736429      2.66445784126187      1.01224331369625
  H   4.30058569484350      1.58507165072907      1.48193141213671
  H   2.72977520913519      1.45949786591693      2.27765097682481
  H   3.27520639103428      0.84186155107479     -0.67559060637056
  H   1.71130977046329      0.68766156636532      0.11732663202224
  H   2.72786605613176     -1.49415535584606     -0.04984459261539
  H   2.66271639560689     -1.01698244423586      1.64668067347895
  H   3.51642039906034     -3.44946610835857      0.85244225714848
  H   3.62179336547392     -2.89844264326029      2.51695266144835
  H   5.20350824820765     -8.68487458354693      3.24196188129800
  H   6.73802277045871     -3.13669949555412      1.57225821853729
  H   7.15054139894076     -0.27929313659302      1.41141633888699
  H   7.18240288990153     -0.99569021946111     -0.18264922551731
  H   8.94765785144361     -1.86753086086958      2.17791631182034
  H   9.48552230103361     -0.92450771851957      0.78504337930609
  H   8.97975964142357     -2.59995947676648      0.56708488134348
