33
Coordinates from ORCA-job 25584optt
  C   2.11357606381881      0.67968516226407     -1.44674769797403
  C   2.67738625278453      0.34421687364030     -0.06451625799702
  C   3.11343120062225     -1.09250472907472      0.04520565786013
  C   4.39243538700363     -1.48168936580876      0.01842358268131
  C   4.88312174928188     -2.85071327315905      0.14251002579759
  N   6.11512035018209     -3.12175129900558      0.37728440771958
  C   3.92917754311697     -3.98010944195741      0.00320572863209
  C   4.55460051673309     -5.35617737945778     -0.16012498426881
  C   4.65844063437616     -6.07784082385128      1.18697396488283
  O   5.33010350059753     -5.32232110581127      2.16513270990104
  C   3.95353853238571     -6.28890349951583     -1.21900997592505
  C   3.65208541579684     -5.58978875281990     -2.54700298690872
  C   3.18389839149282     -6.53109029472518     -3.55988275978291
  C   2.79551050809607     -7.32766064671115     -4.36614569274486
  C   2.61136188848180     -3.74252514800622      0.09625057271611
  Cl  1.42122378952408     -4.99997924417444      0.12712646806342
  S   1.79896221753746     -2.20952506039803      0.20605021005210
  H   1.81769101017750      1.72741927111416     -1.49001891540113
  H   1.23966108383844      0.06967526174140     -1.67517208444683
  H   2.86262906430565      0.50027159415541     -2.21823461767351
  H   1.92646693277383      0.55300398142789      0.70186667724681
  H   3.53963276649229      0.97564209229018      0.15305865004879
  H   5.15355877564327     -0.71141360168493     -0.05973291955918
  H   6.66920658479909     -2.27297707736600      0.46562108328206
  H   5.57823422098627     -5.15080350300134     -0.47928995202606
  H   5.16589440513571     -7.03587711815545      1.01884690479419
  H   3.65710188532380     -6.29497300908520      1.56808394702969
  H   5.94017998589892     -4.71434895381340      1.72092071836663
  H   3.05460780773843     -6.78755390323191     -0.86071921019129
  H   4.68854626503245     -7.07573333459139     -1.40112789397324
  H   4.55065358747004     -5.08214950002583     -2.90937438124819
  H   2.89063045707682     -4.81909120790800     -2.40577973271053
  H   2.44833122547568     -8.03041296329324     -5.08468124624300
