30
Coordinates from ORCA-job 25581optt
  C   2.55982127103457     -0.90516674347738     -0.07028130697544
  C   4.03419750437155     -1.06592222853640     -0.41895611129844
  C   4.28620143951446     -0.93280099124615     -1.92872198002414
  N   5.54263131074480     -1.55700964882219     -2.32635466628299
  C   5.45544912095169     -2.99313922941250     -2.17712608665506
  C   6.83164315256564     -3.66306892086480     -2.04160688448052
  C   6.63819348048652     -4.73434068136828     -1.00930506533238
  C   7.49793095882150     -5.75206501226940     -0.62509686126184
  C   7.08558320104895     -6.57966614494430      0.40777465437551
  N   5.92819202097838     -6.43790833577279      1.05552894780624
  C   5.12770306647717     -5.46927856774885      0.67531110602796
  Cl  3.64000638366407     -5.28453233798975      1.55065259655235
  C   5.42263281406098     -4.59514185015705     -0.36127242650969
  C   4.62747211297632     -3.42853252455634     -0.89529104892989
  N   4.63465397948475     -2.32871658681807      0.04812101750365
  C   3.27253364609140     -3.86773862161347     -1.31544060144216
  N   2.23159538305512     -4.17252571082362     -1.68826764894010
  H   1.95532827623748     -1.68385767436452     -0.53593223859808
  H   2.19526891575146      0.06457202888217     -0.41586264174606
  H   2.41104522739853     -0.95098741336022      1.00992644397355
  H   4.59594070796596     -0.26972428353645      0.07984562677964
  H   4.28726107690806      0.12075018380939     -2.20788241918247
  H   3.47992014723381     -1.41356531136163     -2.49121679643252
  H   6.28790659618106     -1.20170880937846     -1.73596925219225
  H   4.93523778271901     -3.39782318869783     -3.04840868486038
  H   7.57333623205532     -2.94319688212067     -1.68429269419348
  H   7.19404786734540     -4.05351679042727     -2.99200194618525
  H   8.45550323131405     -5.90453962914940     -1.10460346307208
  H   7.71317824147970     -7.39742860534978      0.74218531092289
  H   4.25558485108223     -2.61441948852395      0.94354512065344
