22
Coordinates from ORCA-job 25585optt
  Cl  1.00155987002879      0.39812817518035     -0.39712232627418
  C   2.70919061132225      0.20313120621463     -0.28009161103439
  N   3.42476902041071      1.15710370962403      0.18221866283005
  C   4.76911349809298      0.97327292897481      0.27585833844551
  C   5.35581835602595     -0.21245202179773     -0.14815064596087
  N   4.59726607515964     -1.21865954116416     -0.65836207789264
  C   3.21391857504178     -1.11461911798456     -0.75000881686009
  O   2.54339940726594     -2.02579988666914     -1.17416074572697
  N   6.69568583539422     -0.07535377557175     -0.07307816145659
  C   7.96170399577659     -0.79180470942204      0.16591839512801
  C   8.92003217386807      0.33981606293618     -0.26026801588647
  N   8.34105231685479      1.10256889993992      0.92390879928864
  C   8.28428929760084     -0.27577178195713      1.59115670321602
  C   6.96369972319693      1.17123512683648      0.51231764134707
  C   5.81705689180035      1.85498959176513      0.73166293715617
  H   4.99131129711134     -2.09457330649132     -0.97247447195843
  H   7.99427253107280     -1.82157111244900     -0.17460798232553
  H   8.75828369202629      0.80827233398357     -1.22822965426834
  H   9.96859369176913      0.12053731758781     -0.07908481881046
  H   7.51851220493079     -0.37646435945547      2.35754689634006
  H   9.26766419716972     -0.55761773999041      1.96042034252620
  H   5.69780673808001      2.82763199990980      1.17563061217723
