28
Coordinates from ORCA-job 25586optt
  C   1.18977061762896      0.29984980117901     -0.34726767924273
  C   2.67739310950263      0.14380908514112     -0.20723029999051
  N   3.38979126192307      1.20558505005015     -0.24028911377635
  C   4.78607957182385      1.15151739149635     -0.09770235815858
  N   5.52119120604089      2.18862886246731     -0.05584780072386
  C   5.37288392673012     -0.17873508678760     -0.02383090486289
  C   4.57344630166043     -1.24529292965621     -0.01175226508363
  Cl  5.25747970878715     -2.83208121084210      0.03339801696228
  N   3.18871024171273     -1.14458643571748     -0.07574948054918
  C   2.31530830159592     -2.28090341876492      0.24167020353134
  C   2.27709107922662     -3.39707580595334     -0.83750894436769
  C   2.48566114462827     -4.74289510882218     -0.12432917673347
  C   2.87812345969616     -4.44317889669170      1.31424393271449
  O   3.26484920451433     -5.23309129373414      2.12352257095273
  C   2.66722751753444     -2.97112471183465      1.53597632752528
  N   2.70762782069940     -2.46483601790785      2.69468030531267
  O   2.41405423474539     -1.12329244975353      2.66995567489816
  H   1.00266830125686      1.32534787827633     -0.64831691463792
  H   0.69077027735078      0.11984283845382      0.60680928553558
  H   0.77550563568389     -0.37988291112001     -1.09302930963701
  H   4.93347265443122      3.01729174823096     -0.13870923462030
  H   6.44594336875628     -0.28541490243247      0.00427229197724
  H   1.32262358972439     -1.86480512979391      0.37527904306055
  H   3.05904488924417     -3.21873608342865     -1.57097224100799
  H   1.32661953712834     -3.36434662132717     -1.36741049914321
  H   3.25405998910920     -5.36189031474585     -0.58481319972522
  H   1.57209200790015     -5.34014108839698     -0.09008964762360
  H   2.49551104096426     -0.84856223758427      3.59004141741382
