21
Coordinates from ORCA-job 2558optt
  Br  1.22646670939265      0.24274838125096      0.04660909780962
  C   3.05744967329034     -0.06240919925113      0.01365448079498
  C   3.65977814570284     -1.28157418898923     -0.00714819154494
  C   3.00607825995857     -2.56009869298423     -0.01787275147157
  C   1.71260532456790     -3.03020364658156     -0.04748623139117
  C   1.83220563869466     -4.45644159598882     -0.03308571404708
  N   3.07089800354831     -4.89008345086620      0.00670047992724
  C   3.83617686472404     -3.75542590408827      0.01324829354086
  C   5.19975391405720     -3.67593353734120      0.03799675347032
  Br  6.20971607271887     -5.24510967546400      0.10973073548143
  C   5.87248341001162     -2.40752330468158      0.01007802455802
  C   7.29506679047786     -2.33059410607266     -0.00904948049159
  C   8.49183949038522     -2.27919904129959     -0.03634070153816
  C   5.12149350540971     -1.25283214856059     -0.00649160237159
  N   5.77370055365313     -0.03364304620730     -0.01857836093200
  C   5.09449390295107      1.02647248454925     -0.00672785793108
  O   3.73639812606405      1.09088013099687      0.01762971930704
  H   0.78841331918407     -2.48209221883484     -0.07721010186660
  H   1.00319775753997     -5.15186545767062     -0.05393611854924
  H   9.55430009467545     -2.23792639202227     -0.06475232199684
  H   5.52848444299242      2.01685461010704     -0.01296815075766
