27
Coordinates from ORCA-job 25588optt
  C   1.08226356985387     -0.05708474502673      0.10520655030347
  C   2.59628841173880      0.00428538980078     -0.04859596082260
  C   3.11916465449154      1.46403261664709     -0.09172544931744
  C   4.00948083472786      1.65219148156921     -1.32429193796621
  N   3.15846415659564      1.43111566640683     -2.50783583877683
  C   2.64033422727756      0.05179422882628     -2.56835910790664
  C   3.09246294020072     -0.73034113851267     -1.31998201943291
  C   4.59168793214378     -0.69191332684556     -1.30332314550964
  C   5.49567500412963     -1.73796709850729     -1.30383625702880
  Cl  4.95747203444400     -3.37366817546757     -1.32079890702108
  C   6.85726565273381     -1.42919602251165     -1.28834222433357
  Cl  8.06349156369893     -2.65492698381094     -1.28479182806721
  C   7.24669933975104     -0.09710143187203     -1.27713441938331
  N   6.38657549183070      0.91642561936733     -1.28036263124580
  C   5.09831852789658      0.61231196169163     -1.29135501275329
  H   0.78048699387794      0.40570147915956      1.04600118168580
  H   0.72407059098675     -1.08805908394576      0.10597006239742
  H   0.58081789298067      0.48303316850850     -0.69956400321664
  H   3.04345226186198     -0.51067031408903      0.80468790474428
  H   3.67608530881744      1.71024017732729      0.81245063129924
  H   2.28416764465842      2.16187318181803     -0.17570660832900
  H   4.43502343249321      2.65251958999177     -1.37026587298317
  H   3.68687053757785      1.64253513299068     -3.34348822114962
  H   2.99941880280363     -0.46055586805946     -3.46366456893442
  H   1.54968265543740      0.06252954608953     -2.61532209650573
  H   2.71079970314325     -1.74995607434293     -1.35006146907521
  H   8.30347983384693      0.14285102279711     -1.26650875067106
