32
Coordinates from ORCA-job 25606optt
  C   4.68481007840289     -2.34140520699305     -1.21628497216523
  C   5.00283272229101     -1.00341362550372     -1.88076309852772
  C   4.28315311708317      0.14944229321673     -1.25374630488488
  C   4.45416647176065      1.38544178504969     -1.70207376617042
  C   4.57482597978085      2.51074548915061     -0.73703838694214
  C   6.06465885728331      2.52423757043114     -0.28378003675096
  C   6.94227029881858      3.20168559364910     -1.32752782422215
  O   6.16163463457031      3.23466267010982      0.94948520136528
  C   6.59082034621090      1.10697300616867      0.07510405717750
  C   7.17185716894261      0.21638491233682     -1.02087095910217
  C   8.55601167535550      0.30538287414512     -1.19473841923501
  C   9.24100634177365     -0.47974979314880     -2.09915099143653
  C   8.47959596923438     -1.38587585350683     -2.81810505856494
  Cl  9.26732265374490     -2.43734556678390     -3.95787520932986
  N   7.18390451494331     -1.50632723814186     -2.69455111308102
  C   6.51236592548918     -0.72882032597374     -1.83687941795150
  H   5.25328123150256     -3.14448331775715     -1.68231322932170
  H   3.62091888633785     -2.56407302879559     -1.30512135612353
  H   4.93876313758143     -2.30820512577987     -0.15402907103628
  H   4.76248291074930     -1.07485881609679     -2.94488848255844
  H   3.87479695713493     -0.00081591737683     -0.25675436931378
  H   4.89119874853009      1.52542699172175     -2.68902648564579
  H   3.96833672004728      2.32263932361091      0.15097609031086
  H   4.31356447674263      3.49184445541505     -1.14257187719160
  H   6.61254019156644      4.23263911834828     -1.47611778718807
  H   6.89798856293871      2.68634233045928     -2.28765555962034
  H   7.98049335537449      3.21998053029884     -0.99393086072624
  H   5.81480373725728      4.12392250401218      0.82125182147105
  H   5.81578240987891      0.58799360458346      0.63734412330592
  H   7.40086653667120      1.29390098479357      0.78206531014721
  H   9.11244077241816      1.00901967009832     -0.58635770397267
  H   10.30950460958345     -0.40929189174122     -2.23707426271485
