32
Coordinates from ORCA-job 25607optt
  C   1.22594406675372      0.42630857682251     -0.04973949103553
  C   2.71988857807129      0.24793117266628     -0.10852836295622
  O   3.00967936318906     -1.04261792405542      0.34023835979913
  C   4.33590445246338     -1.53603704605404      0.18001685570764
  C   4.79085813055615     -1.59020485809147     -1.27011279946479
  C   5.32776573289903     -0.79843280726168      1.09092217838685
  N   4.86459019904493     -0.90741034774307      2.46482478265537
  C   5.58420156658223      0.62572614929479      0.63709645438376
  C   4.60231085854644      1.54762569296213      0.49247781575911
  O   3.29491450349381      1.23632639091708      0.73700195469327
  C   4.95902258529801      2.88259026897126      0.11381512941220
  Cl  3.65394320231219      4.00130329388527     -0.05955432494467
  C   6.24539485119239      3.26145768684534     -0.11129523335335
  C   6.70665730949210      4.62188942688734     -0.51594364237293
  C   7.30239253788378      2.26571454634984      0.02611020925862
  O   8.48685650684587      2.48292049777640     -0.16412313387238
  N   6.87365170319992      1.00011406653908      0.39622159676300
  H   0.74208996146419     -0.30500698556664     -0.69429821477375
  H   0.96161645192994      1.43241339400546     -0.36913207275823
  H   0.89078575931522      0.27412043139412      0.97574026635060
  H   3.11421210929903      0.40250280255922     -1.11885328902413
  H   4.27048692077779     -2.55066785133803      0.57400160924034
  H   5.00830298823421     -0.60422019846341     -1.68239473461338
  H   4.02285479750643     -2.06320068922928     -1.88161616741651
  H   5.70034315400733     -2.18817839431449     -1.34256244018975
  H   6.27584403080352     -1.34095538966170      1.01045004969189
  H   3.92805692028876     -0.52284440891664      2.53561141261862
  H   5.46298807261294     -0.38860240474841      3.09586486797808
  H   5.88437355474405      5.32722504103424     -0.58256506223151
  H   7.21781361202234      4.56429220838515     -1.47870836754649
  H   7.44568017666184      4.98576330622096      0.19938622755530
  H   7.61557534250803      0.31815435192780      0.48164756629983
