30
Coordinates from ORCA-job 25618optt
  C   0.94939536825953     -0.16872225502025      0.05336158127209
  C   2.47014088476424     -0.09852530578837     -0.01163304159182
  C   2.94694243969963      1.32962065590253     -0.24415832578688
  C   3.07732497278321     -0.66561149557359      1.26745630050842
  N   4.52064067366069     -0.70384109663572      1.19201125853250
  C   5.17164249098729     -1.07883487147206      2.21757665785606
  N   4.58328911342061     -1.47514002854561      3.41785127250049
  N   5.20174222233273     -1.84507889893988      4.53721180275815
  C   6.48201499357042     -1.88326405099120      4.52026420293414
  C   7.28673098132619     -1.53718647839363      3.36449561361282
  N   8.65480176418606     -1.62457276155942      3.52668667820275
  C   9.53899437267691     -2.08667587443190      2.46106158759538
  C   10.68073834858771     -2.78228360249792      3.05934063881252
  N   11.55581781999054     -3.32165468994250      3.56388173071192
  C   6.63037830253645     -1.11984615825044      2.25365072922810
  Cl  7.43623155560203     -0.53214815916564      0.85877221547236
  H   0.50067466884313      0.21604225537585     -0.86323495989580
  H   0.57414098271506      0.43521044377622      0.88443020645289
  H   0.59915714076095     -1.19292533423289      0.19686402942778
  H   2.82399010779685     -0.72338802847548     -0.83709139056159
  H   2.59810250829300      1.98039994531026      0.56335726258529
  H   2.55680740181994      1.72428552548171     -1.18363980861133
  H   4.03522126848348      1.37309833539942     -0.27083467181174
  H   2.66847656209041     -1.67387861178184      1.43946411364016
  H   2.74166347017013     -0.03691296128562      2.11113232558029
  H   3.57926079116546     -1.46626757498478      3.48678644969404
  H   6.96662699563986     -2.19750752515567      5.43719115783177
  H   8.92820372575910     -1.95364694285457      4.43941229020355
  H   9.91130735598149     -1.25987164318435      1.85695181473660
  H   9.02254071609685     -2.77987281208266      1.79238027810904
