27
Coordinates from ORCA-job 25615optt
  Cl  1.84161569289609     -0.51450626458935     -2.03890128252490
  C   2.60233409945757      0.32929560233181     -0.74303262719295
  C   2.97573720336496      1.63266637016842     -0.89749591976392
  N   2.61419054391298      2.47281751848921     -1.91354683107990
  C   1.18969865734458      2.76774928761971     -2.13474729170491
  C   0.71348115606512      3.92340881883085     -1.22680767480386
  C   -0.47599427819596      3.59563156546775     -0.29715718915611
  N   -0.43615282943927      2.30454807930551      0.39420562527245
  C   0.54830940533988      1.89902747936369      1.04326226411322
  O   1.71423786916632      2.61245935442145      1.23440703675138
  C   2.91388972885568      1.94339891604819      1.32969984933826
  S   3.01443340115157      0.38516896195044      2.11809484158778
  C   2.81449194733236     -0.49323830362746      0.49502753297655
  N   2.77065972232342     -1.74727769698918      0.46326219352232
  C   3.77973348625248      2.01521329580147      0.29480115854828
  C   -0.65370427787113      4.68990770962650      0.66327776959017
  C   -0.77415553239536      5.59822212649907      1.43336310001485
  H   3.16440195765320      3.31993478403957     -1.89518420371076
  H   0.62430816496615      1.85729704043106     -1.94832342921286
  H   1.05542619167971      3.02132954470691     -3.18525708842254
  H   0.40044986660947      4.77716231292360     -1.83009541805110
  H   1.54640116534573      4.26244134465282     -0.61297351430826
  H   -1.37792785838504      3.55440504552195     -0.91194240537054
  H   0.53289522753450      0.92900081973928      1.53038104275780
  H   2.89674168964174     -2.18395773621653      1.37467020434486
  H   4.76738028828600      1.59524190832694      0.41982081095092
  H   -0.88588268889279      6.39765211515626      2.12619144553379
