30
Coordinates from ORCA-job 25617optt
  C   0.85377680431043      0.13783584550728      0.16294093845688
  C   2.36563618515790     -0.07963923954035      0.02647188071250
  C   2.97404402911836     -0.24822334055547      1.41797418305870
  C   2.56627639420541     -1.34580732310301     -0.81249594414314
  C   2.98272319182851      1.15409534449597     -0.70091224622098
  C   2.39828482009365      2.40121880094590     -0.19007480778311
  N   2.00324603238945      3.38876522918019      0.23863795745776
  C   4.52714809364070      1.34049163501544     -0.59147554703961
  N   5.37632002690813      0.27180316329751     -1.06343185389126
  C   4.91630261874229      2.56660797972361     -1.40935575584220
  N   4.67836806494359      2.54932465423927     -2.66532126443260
  C   5.03100418317579      3.59367918244045     -3.52211748097924
  O   4.82334926340518      3.53916396028270     -4.70063206033513
  C   5.68813280781639      4.80230377701016     -2.90124489454933
  Cl  6.07224602117846      6.06487956726265     -4.00108191587262
  N   5.97795368851698      4.96867932491957     -1.68065349129644
  S   5.66836854519478      3.83337554823799     -0.52840693196033
  H   0.38881430289579     -0.76778452983243      0.55486138016267
  H   0.40222020924632      0.35735547391930     -0.80720001568060
  H   0.62344487049283      0.96066396855430      0.83949442701300
  H   2.45750807322090     -1.04685108248285      1.95235883415170
  H   2.87117169198220      0.66816933514733      2.00420978225846
  H   4.03287003569885     -0.51343387822046      1.37885162102447
  H   2.05867868971754     -2.18102846592422     -0.32720787775502
  H   3.61038772715824     -1.62435374561340     -0.93497937913433
  H   2.13044459706088     -1.22287168169221     -1.80612634951829
  H   2.73491334313215      1.09590596534489     -1.76539424979825
  H   4.76947339909097      1.52821908687742      0.45812695569493
  H   5.17258261056269      0.03988768564638     -2.02915068793008
  H   5.30530967911454     -0.55643224108395     -0.49066520582852
