32
Coordinates from ORCA-job 25626optt
  C   0.99778840664837     -0.04867635458039     -0.18205450337290
  C   2.49516290535206      0.05011039266583      0.03757546562582
  C   2.97179750545855      1.17049475442149      0.97294206425684
  C   2.95360776727486      2.55339866246719      0.34998606036306
  O   2.25259265703860      1.16454384371331      2.20083446669999
  C   4.36956762901314      0.66776013523042      1.29840803985664
  O   4.24393126411222     -0.74293661378798      1.40731700586155
  C   3.16493458312359     -1.20478850773123      0.62815011356128
  C   2.28833210075706     -2.08467852255691      1.49432551067909
  O   3.64099261817152     -1.92919754138646     -0.51624823612740
  C   4.19992106945612     -3.14885071401875     -0.36116704242158
  C   5.16197274810156     -3.47290532806748      0.58894477130345
  N   5.71282132920846     -4.68203048276305      0.65617132586720
  C   5.31135139147119     -5.56992371090359     -0.23866120807796
  N   4.40531555577775     -5.36843476667186     -1.19192079352356
  C   3.85846246865824     -4.17710769853664     -1.24227915903845
  Cl  2.66631442114929     -3.88625706791122     -2.45778973931668
  H   0.61548562624681      0.86460758017844     -0.64174703086177
  H   0.46054668805125     -0.21837901372638      0.75181111596162
  H   0.76825108139992     -0.87627419835467     -0.85481787888632
  H   2.98283615325800      0.21224120516124     -0.92720919226752
  H   1.93032850611860      2.85138956114804      0.10964992831069
  H   3.53820702329341      2.57929597611305     -0.57003737188550
  H   3.36185675826786      3.28169288605001      1.05127186478125
  H   1.35311381827000      1.46585867990204      2.03477845105776
  H   4.73446897832259      1.05445153095573      2.24841481838896
  H   5.06593851642263      0.93101259655438      0.49584569157088
  H   1.83763508050221     -1.46733675741015      2.26942202790085
  H   2.89039311926235     -2.85326824353516      1.97681086832508
  H   1.51078090672652     -2.56109911863937      0.89694916270473
  H   5.48105715927352     -2.72798893386604      1.30711379975541
  H   5.75823416381168     -6.55572423011379     -0.19579039705251
