23
Coordinates from ORCA-job 25639optt
  Cl  4.09044229141465     -2.41747018021363      0.47390916676810
  C   3.91769418488830     -0.71029064802466      0.38827083203835
  C   5.00980624105167      0.14700185293195      0.42342249706788
  Cl  6.60768778004360     -0.48808899813278      0.54258188706882
  C   4.80014347296460      1.52318769793286      0.36273877969204
  C   3.48197898631378      1.95568838053406      0.25843911995893
  N   2.43017857661303      1.14351333927209      0.21548318192122
  C   2.64533572657788     -0.15905179468085      0.28159529108957
  C   5.96661493228307      2.50721024113217      0.37949857722019
  N   5.57742785849962      3.84757550095348      0.78890047720703
  C   5.10107132808595      4.80905093493998     -0.07943971260718
  N   4.41303623510333      5.84174745047452      0.21047447892103
  N   5.47872264385471      4.60915356525079     -1.39305062521697
  C   6.32261668791898      3.58765343282296     -1.78326535352808
  C   6.61400205055446      2.57147521511044     -0.97855797019259
  H   3.26554769365098      3.01713871824284      0.20729986236125
  H   1.78332404351992     -0.81535951612952      0.25080597627812
  H   6.69358923978329      2.14540821002462      1.10903969274335
  H   5.22867058071003      3.93578744035464      1.73032417515122
  H   4.18455477265032      5.88390876531704      1.19836034310941
  H   5.25515483139087      5.36839674465719     -2.01344185120847
  H   6.72371020439855      3.67319854974414     -2.78349299869915
  H   7.26968963772826      1.77416509748561     -1.28989582714408
