28
Coordinates from ORCA-job 25632optt
  C   1.68585659160279     -1.09285747197408      0.18939618227094
  C   3.04257067396583     -0.64526986084554      0.62976570589100
  C   3.26111317738944      0.47764105452289      1.33811664670681
  C   4.66524119690738      0.80755222458405      1.67983310671026
  C   5.35108946977136     -0.09208485996550      2.36981960323299
  N   6.75767935618997     -0.35568729256220      2.28393178979061
  C   7.73814282705015      0.49040973962467      2.73649847148527
  Cl  7.20393614073419      2.02026467944187      3.32954794805529
  N   8.98325886477535      0.24234839307311      2.76654089529816
  C   9.37993874721464     -1.00271504196874      2.32953892425939
  C   8.52103562642803     -1.91854053500061      1.85198993315375
  O   8.88426755864045     -3.14775047361093      1.41234305784294
  C   7.09736488038355     -1.62823372767104      1.74733663279464
  C   6.24909808964794     -2.54666087420268      1.20718562369073
  C   4.79605738329836     -2.35797336842852      1.04606221040862
  O   3.99708563712855     -2.99799825046067      1.96216543525788
  C   4.25814449556076     -1.43065993590114      0.25797004275274
  H   1.48473745722520     -2.08728202526751      0.59416995717744
  H   1.64498863777081     -1.17815532564921     -0.89858235964617
  H   0.90760698700883     -0.40756457066976      0.52397038511221
  H   2.44223128165851      1.14890186405898      1.57377246573178
  H   5.17191710043980      1.61293179536671      1.15603153555306
  H   4.82367304993072     -0.88441418252152      2.88796477278400
  H   10.44287447836777     -1.20818069906870      2.38702112539040
  H   9.83693266104039     -3.25535761753615      1.50287379394907
  H   6.69508314753047     -3.50402689023928      0.97155522767253
  H   4.55480639981737     -3.50221496620910      2.56307941140523
  H   4.93126808252131     -0.96742178091940     -0.45289852473159
