28
Coordinates from ORCA-job 25647optt
  C   1.47247827568967      1.13763078218023     -0.99392250290840
  C   2.81758113788769      0.75952763293209     -0.41486714046074
  C   2.85240937889411      0.87154069805252      1.09924550437823
  O   3.05648198052960     -0.59842500709873     -0.81668351982838
  C   4.32512605997928     -1.02049883340105     -0.74607866850940
  C   5.50193890217635     -0.42225553299311     -0.44727304795005
  O   6.50128767896546     -1.31778718783023     -0.56451445739756
  N   5.99842250727993     -2.53244388846036     -0.92881718859333
  C   4.71892933191972     -2.36186732009288     -1.04142177061089
  O   3.92262769805595     -3.36338191994654     -1.46661553680727
  C   2.86901449990362     -3.73592443391401     -0.67033203632255
  C   1.88520318267213     -4.50826356655700     -1.26996155840148
  N   0.83251715557418     -4.96512917745228     -0.60376088445447
  C   0.73040792913786     -4.66390533965137      0.67096657651560
  Cl  -0.65775660113219     -5.27487137026869      1.51620612731054
  C   1.65616049128690     -3.89756934008613      1.36658573836008
  C   2.75813373565729     -3.42509022750931      0.67592852048430
  H   1.22630299771802      2.16618210625237     -0.73080399843939
  H   0.70087309550059      0.47923288844575     -0.59309703600751
  H   1.48188430242853      1.04361805540203     -2.07874588780254
  H   3.60161994911433      1.38112458400583     -0.86285967887466
  H   2.04638751665112      0.27482680248738      1.52903412609044
  H   2.71356550775074      1.91015207904184      1.40069953912555
  H   3.80040983403194      0.52177561351803      1.50863675679769
  H   5.78335371644680      0.57366284109706     -0.15285060518181
  H   1.96629366094653     -4.76083538712464     -2.32050923217740
  H   1.51648476992172     -3.68960859510026      2.41727380202625
  H   3.51486130501207     -2.83541695592851      1.17753805963918
