28
Coordinates from ORCA-job 25642optt
  C   1.13500975339949      0.43619025038925     -0.16772179986708
  C   2.62224698348746      0.25251932053931     -0.33706861163945
  N   3.05655604249106      0.52738452396585     -1.67014353188741
  C   3.26913248406455     -0.81107697972098      0.51425776660142
  C   3.45785399616761      0.64092175986938      0.86341399400461
  N   4.76080457907190      1.18311293951770      0.58549167877335
  C   4.79670511247177      2.54401838166798      0.19263976690060
  O   3.76688826747377      3.18335177308955      0.13895771165108
  C   6.12383889934424      3.01457325278868     -0.10528853182052
  C   7.15909346080305      2.14817778813276     -0.01467517108759
  Cl  8.76042221239976      2.68644099830867     -0.37943141030096
  N   7.06488140998064      0.84614011778473      0.33956423105018
  C   5.87434030671358      0.41280867076329      0.62892636008758
  C   5.68355261104301     -1.02599614359433      1.00561234567833
  C   4.52160157923439     -1.62187210882897      0.20877661444175
  O   4.81067624889144     -1.61353666184797     -1.17842854090430
  H   0.59985024902826     -0.25337111069488     -0.82024223683499
  H   0.86613896861824      1.45707868854212     -0.44432085104302
  H   0.82384340883063      0.26976987465038      0.86429301847330
  H   3.94719057116203      0.11092626676992     -1.89852574225317
  H   3.07512705264980      1.52802605958142     -1.83354153769561
  H   2.57452534295510     -1.33990226276362      1.15383826457263
  H   2.97614661267290      1.08356899571457      1.72475723514028
  H   6.24832711139736      4.04388073224652     -0.40214747749338
  H   5.45366647944531     -1.09805167866566      2.07226480641211
  H   6.62287424673702     -1.54575844297314      0.82233006477544
  H   4.35111979814634     -2.65040569624262      0.53712258634884
  H   5.62958621131924     -2.09491930898991     -1.33371100208403
