28
Coordinates from ORCA-job 25650optt
  C   1.16245404377813     -0.22958607379264     -0.62146221741551
  C   2.60898376565077     -0.01505508342846     -0.30608918805924
  C   3.17327006854019      1.19323098742410     -0.22477483125296
  Cl  2.38537285222346      2.67829880735607     -0.52245998510295
  O   4.49547075385525      1.43624927746460      0.09702750152607
  S   5.27101221016782      0.31463633119327      0.93091837514149
  O   4.67479885749228      0.21232139510156      2.20829426717223
  O   6.64637917078020      0.57604949950921      0.74359769516731
  N   4.83571822907466     -1.00641965445783      0.05461933197977
  C   5.69995304115641     -1.56199580523957     -0.90933440957322
  O   5.33051022026706     -2.36217483205471     -1.71269384221887
  C   3.40578982184739     -1.23317783308668     -0.03765861680195
  N   2.85512890674506     -2.35696648203238      0.03853136577641
  C   3.46830580723405     -3.58954863895595      0.39662709478402
  C   4.68152769818438     -3.62321923598232      1.30068191870145
  C   2.45312848773417     -4.69809742411431      0.55934966703133
  C   3.31904635740482     -4.66246126679470     -0.65293018677016
  H   0.65260513055678      0.70764212912703     -0.81962407379015
  H   0.67859161412718     -0.73779565181175      0.21224289851578
  H   1.07275469315186     -0.88419294752137     -1.48833994671925
  H   6.72489165438725     -1.18747232748436     -0.80912741382790
  H   4.57347800833092     -2.90819650840985      2.11837536712462
  H   5.61370847616989     -3.41890529048000      0.77582785422678
  H   4.76989061163422     -4.61953886572988      1.73279099124064
  H   1.41855235280219     -4.41155070278060      0.44355849319274
  H   2.65537179810572     -5.44011421508213      1.31851157969900
  H   2.87994589072674     -4.36285862778990     -1.59215294335174
  H   4.14135947787108     -5.36010096014642     -0.72830674639575
