28
Coordinates from ORCA-job 25651optt
  C   1.14682267906061     -0.10410309680310     -0.54498917193475
  C   2.59796722584624     -0.02844193029430     -0.08882656743888
  C   3.51742355338979     -0.32999019763978     -1.27136089270303
  C   2.78646335600748     -1.03330599578034      1.04036675125488
  O   4.13453615021145     -1.10286930046605      1.48598379921456
  C   4.86615212988284      0.01897542399747      1.57639208933572
  O   5.99119094578252     -0.07097632067447      2.01595534520255
  C   4.28094158027373      1.28369005628251      1.12408724022828
  C   4.95315663507462      2.46282104265690      1.32972072763526
  N   6.20524105175278      2.55658898456059      1.83860171785823
  C   4.31496328377056      3.72852207040054      0.99745287730819
  C   2.99878736202831      3.83381403040605      0.83573178185618
  Cl  2.18753062391796      5.28974618734068      0.48745139383314
  S   1.94546423554291      2.41353249226038      1.05418459778186
  O   1.70817554145474      2.25680923937834      2.45392817130056
  O   0.83514389550457      2.54559085804423      0.16999061738129
  N   3.00392992674821      1.29343337565521      0.47830584854012
  H   0.98822304398239     -1.10607299779792     -0.94583516813993
  H   0.93885044162123      0.62290809349176     -1.32531385423324
  H   0.44379038541502      0.05917240280198      0.27037219766508
  H   3.30302261729239     -1.32894306119006     -1.65239616399524
  H   4.57100244199938     -0.29186368275410     -0.99813215659109
  H   3.33910064760367      0.39623289825520     -2.06386769792040
  H   2.53802803405152     -2.03917555438984      0.70438168741546
  H   2.14115038359291     -0.76522222954410      1.88134352912618
  H   6.63947096926488      1.70138515139156      2.15991648867555
  H   6.49636710507770      3.43312369219803      2.23386444567730
  H   4.93910375384954      4.61061836821260      0.91269036566615
