27
Coordinates from ORCA-job 25655optt
  C   1.11266055185855     -0.26544314066446     -0.42270205394679
  C   2.58120870007086      0.05700066036876     -0.19750143116098
  O   3.05460608442827      0.96870800826311     -1.16519231177482
  C   2.90122235814390      0.63950463580336      1.20660486524434
  O   2.28456339619222      1.91050242545984      1.32164789975447
  C   2.41668225612519     -0.26950338607819      2.39815188388071
  N   3.06371026449424     -0.06623280177795      3.67541761712175
  C   0.97341411889206     -0.03568816261617      2.59132238457368
  N   -0.13472935423330      0.23159739057186      2.70728725842067
  C   4.41614899103002      0.89319873346754      1.27229849400158
  C   5.34586842860272     -0.09141969242223      1.32525072969938
  Cl  4.95767998520798     -1.77328969559410      1.37599627763754
  C   6.81187310174323      0.11335216135264      1.36415336839311
  O   7.61588409764669     -0.77979158840981      1.43600775942881
  S   7.36923747464020      1.77983419617026      1.30842684874418
  N   6.04342741921533      2.73054540147170      1.22579434178696
  C   4.84340274871086      2.28162325327364      1.21425139290198
  H   0.99083028284328     -0.56933900865947     -1.46129673210357
  H   0.47505336096686      0.60418997795554     -0.24916760700764
  H   0.76134724041611     -1.07620147797546      0.21549953399842
  H   3.17143019149233     -0.84862446320142     -0.33277026832562
  H   2.59482520644185      1.80714529517750     -1.03408827407013
  H   1.33317275919543      1.80066807637089      1.45028505107700
  H   2.53123061134843     -1.31512602937738      2.11689931945599
  H   3.08936821543761      0.91534766978978      3.92782563108611
  H   4.00584067650147     -0.43486150537220      3.67103855494190
  H   4.06704083258756      3.03030306665243      1.14955946624092
