25
Coordinates from ORCA-job 25666optt
  C   1.01739812616102      0.00724866335955      0.06879360454923
  C   2.52419280933762     -0.17202881886690     -0.01987191575282
  C   2.89658338233101     -1.59806361242028     -0.41173594444466
  N   3.03763778385023      0.74845418410003     -1.03601325386646
  C   4.21068925967422      1.16700184966604     -0.97418199608259
  C   4.79333267237801      2.05936783426450     -2.03909813231120
  N   5.64855119705501      3.06870401356275     -1.43673928931185
  C   6.47744128567160      2.69139892082877     -0.44130496923441
  N   7.52915066735853      3.40321771408243     -0.10980677151863
  C   8.24358852850381      2.91243583637202      0.90230338967340
  Cl  9.62682461646338      3.82761870703556      1.36354844763112
  N   8.02794750722317      1.81399562902937      1.58319158322227
  N   6.94960519250888      1.09684192383716      1.24776708220183
  C   6.18892797729406      1.50615514755336      0.28723583695984
  O   5.07574186682882      0.77082079370861      0.02600781553716
  H   0.60046623380423     -0.65554355059282      0.82792163280803
  H   0.55810568169956     -0.22769998034791     -0.89256884222077
  H   0.76283642195896      1.03494034283748      0.32714550908167
  H   2.97702493494110      0.05386192276557      0.94974829665582
  H   2.49274381596044     -1.82960479240255     -1.39866136605691
  H   2.48066030632037     -2.30430444428851      0.30740833583327
  H   3.97874121390816     -1.72616463513540     -0.43442421124030
  H   3.96695261688902      2.53045344248944     -2.56103970927146
  H   5.35286251160452      1.43771944688734     -2.74815033195278
  H   5.95699339027422      3.85017346167438     -1.99647480088881
