23
Coordinates from ORCA-job 25664optt
  C   0.89969077736866     -0.30856950725025     -0.61857649571945
  C   2.36167149913821     -0.22362597471973     -0.19872281869902
  C   3.14580388860817     -1.42086967219692     -0.74431005371908
  N   3.95117452793853     -2.05325679882721      0.14338775339723
  O   3.05401016355094     -1.74357804995224     -1.90459547754384
  C   2.99351426200917      1.04795417846533     -0.75718285580086
  O   2.36185416315733      1.94351217400523     -1.22383058410224
  N   4.43818043211031      1.08111013472211     -0.83234054011849
  C   5.06995096377588      1.36258008486960     -2.12785798635720
  N   4.54378962668872      2.01454321765730     -3.05676103585207
  N   6.33038047403145      0.78618370551387     -2.25798573544109
  C   6.95272333550365      0.42413825122101     -1.20783486902955
  N   6.51151961814821      0.54461014497518      0.10511565752684
  C   5.27494263397946      0.81700333307187      0.20739579574284
  Cl  4.61290594303540      0.97299013468378      1.80388434331072
  H   0.44414023537293     -1.19642472109608     -0.18192719356934
  H   0.83253010667685     -0.37803557884402     -1.70220272398230
  H   0.35666977175114      0.57295449789246     -0.28542706238090
  H   2.43722358513167     -0.18812659709113      0.88808541943813
  H   4.00809223024922     -1.78175196138291      1.10915018976249
  H   4.49887680357565     -2.83432551520262     -0.18024953441420
  H   3.64728184147154      2.41800322104716     -2.80468182364659
  H   7.93907311672686     -0.01401870156179     -1.31353236880200
