25
Coordinates from ORCA-job 25678optt
  C   3.81295766788970     -0.20503032926352      1.03582970172600
  C   2.63170898176891     -0.18149193230030      0.07785579971566
  N   3.00340528241006     -0.59579232573602     -1.27806193110041
  C   3.55610331954573      0.37902761244324     -2.13741992419735
  N   3.83053274714899      1.57790976563865     -1.81775992876800
  C   3.80140089580166     -0.09110160499115     -3.50796633698469
  C   4.26303710275813      0.79150615685586     -4.47191936752207
  C   4.47417621425587      0.27797538197845     -5.73429290091610
  C   4.22070770260225     -1.09475961113350     -5.98034463733412
  N   4.47353601175462     -1.49780500650968     -7.28021062005902
  C   4.88785145321167     -0.50482523166146     -7.97608305728464
  S   5.03179476990152      1.03705837169203     -7.17824657988236
  N   3.78249221138429     -1.93508175407206     -5.05925315729218
  C   3.57683068411109     -1.44034018767193     -3.84568702040568
  N   3.13123200861016     -2.33535099508944     -2.88513242062437
  C   2.88637531964763     -1.89034503802602     -1.72631778706288
  Cl  2.35391537878059     -3.05077346119085     -0.54808251987532
  H   3.50786521809876      0.16483381180383      2.01451697366881
  H   4.63090612050340      0.41568898598094      0.66952533668187
  H   4.18242186873600     -1.22376387180903      1.15240263952773
  H   2.20046742586263      0.81622906194174     -0.00363673684311
  H   1.83809816566937     -0.83301364476580      0.42671408038625
  H   3.64856246320067      1.80725360984257     -0.84864414002408
  H   4.43950175787735      1.82543560591214     -4.20761103241083
  H   5.14911922846893     -0.58244336986869     -9.02317443311907
