26
Coordinates from ORCA-job 25676optt
  C   1.05010745333748      0.02196416430019     -0.14748734056880
  C   2.53530942589207      0.10769082700579     -0.09688501917793
  N   3.19236980465444      1.18453021759017     -0.20145809189162
  C   4.63591761926795      1.01567080262910     -0.09353122035251
  C   5.05339285545243     -0.15794100104086     -1.01363432243106
  C   4.54453010374979     -1.05734214902782      0.12275713797495
  O   3.11918482604387     -1.10574902648468      0.09469256197527
  C   4.98491308633144      0.06913413451169      1.09297120076974
  C   4.32187437824503      0.18748509944711      2.42597551990561
  C   3.61442733606434      1.24068532491344      2.83441603771049
  C   2.94949007048373      1.37576611266452      4.13745966529366
  N   2.25384166029422      2.37782830326179      4.49006347960593
  N   3.07371540638858      0.33048760780732      5.07764665552977
  C   3.70343811548054     -0.72348257621660      4.85038698246348
  Cl  3.79552051528645     -1.94835404945470      6.08122215411195
  S   4.57485257314224     -1.23246661063663      3.42115158195220
  H   0.63601546447396      1.01023530792439     -0.32144980418846
  H   0.67577013625502     -0.37622095096443      0.79665177945851
  H   0.74209177303556     -0.65972348959293     -0.94044591731466
  H   5.14140637569969      1.97342717974324     -0.16925049103406
  H   6.13159167221074     -0.24169418327687     -1.12666406888656
  H   4.54618503188095     -0.23036641549064     -1.97309217914337
  H   4.89483872942632     -2.07741407000535      0.24834685937725
  H   6.06839666888462      0.01470999302382      1.21330580416736
  H   3.48682530818950      2.06511972813529      2.14229011390555
  H   2.22899360982898      3.06901971923364      3.74256092078729
