26
Coordinates from ORCA-job 25674optt
  Cl  1.17550115237817      0.00287451160648     -0.52428662492414
  C   2.85222632719464      0.08786322318259     -0.21737831510309
  C   3.56686744823568      1.19433970849904     -0.35060489842521
  N   4.94709980438927      1.19430156213174     -0.10183238955745
  C   5.57752936913542      0.04282940734054      0.34235780892338
  N   6.78951491818164     -0.10733723518206      0.67519692915299
  C   4.70455898099507     -1.19624235599478      0.46347769076907
  N   5.12950006393886     -2.31146836319937      0.82582726943438
  O   3.36970079689291     -1.09961223155231      0.16725641700297
  C   5.63072728848744      2.43311228792231     -0.25080029172163
  C   6.74175894481694      2.55210444276357     -0.97192093971727
  C   7.47452206185833      3.86162214898620     -1.03988817860358
  O   7.26291308715295      4.66424649158616      0.10494472908374
  C   5.94675464349541      4.79055325840105      0.52608909237414
  C   4.78335445975234      4.85087065824424     -0.39727592290594
  C   5.03293577769424      3.59938241848260      0.43694800115002
  H   3.12879409015968      2.12271891766150     -0.67686666986204
  H   7.32761322838963      0.74987320854295      0.58923404268347
  H   6.12860466780504     -2.22642332029721      1.01387646488455
  H   7.14347709303659      1.70727795099484     -1.51723110730008
  H   7.19827160382315      4.41641304627675     -1.94562738890120
  H   8.55005196722916      3.69186998210943     -1.08408513548907
  H   5.90837000368309      5.38072224639923      1.42992813445960
  H   4.95322309910928      4.74493171939078     -1.46006076751746
  H   3.95432138812345      5.48760901940720     -0.12352711147599
  H   4.37180773404158      3.38456729629648      1.26524916158586
