25
Coordinates from ORCA-job 25677optt
  C   0.97809466005482     -0.18823795993057     -0.33687415516518
  C   2.39384424348673      0.16381431391557     -0.04546939312406
  C   2.85656027919997      1.11152337238714      0.77605850532540
  C   4.31996287610875      1.08995211770597      0.80359563438622
  C   5.21838770164668      1.87906421152884      1.48385127564960
  C   6.57670273689072      1.61184995773064      1.28346221453064
  C   7.03509124932859      0.59919938810713      0.42096283912633
  C   8.46489925588367      0.53391767436687      0.37552050931479
  C   9.04522224219704      1.45899249147114      1.17174132744986
  S   7.90593599720545      2.44537317093701      2.01036369414851
  C   6.07722417196688     -0.17631529850740     -0.25924754320669
  Cl  6.61164917394722     -1.41053522059374     -1.35822830173351
  C   4.74651596744505      0.05775733500366     -0.06494165277751
  C   3.53925760643865     -0.60421054098588     -0.68023782798239
  N   3.44932614047571     -2.02825830813065     -0.35750466500954
  H   0.29056493703063      0.49519862088855      0.15898857531494
  H   0.75802826311085     -1.20139667281771      0.01127257695669
  H   0.77883590593718     -0.16160967470461     -1.41137512259095
  H   2.24937993540645      1.79857637270009      1.35031927561571
  H   4.89460623478881      2.67480315218095      2.14199939207326
  H   9.01428310896027     -0.17332531137733     -0.22765302287330
  H   10.10049834408021      1.62383498223595      1.31976840035250
  H   3.54416774820113     -0.41086656245887     -1.76547747901841
  H   2.64003620710283     -2.43619841061803     -0.81202461850450
  H   4.26492501310567     -2.51690320103474     -0.70887043825839
