31
Coordinates from ORCA-job 25675optt
  C   0.96797020832088      0.15253806470008      0.29641420755951
  C   2.46732732431719      0.10503734304439      0.03621449300483
  C   3.08325265110077      1.30167600072739     -0.61848925389054
  C   4.12078307569969      0.97363616677670     -1.41404728309188
  N   4.86496187864714      1.92194963129544     -2.05778600865923
  C   4.54215382912632      3.14384675511097     -1.89460158990927
  Cl  5.46322564964930      4.36784993472927     -2.70077393230712
  C   3.41748011127260      3.64384062757854     -1.06278995807334
  N   3.02834249372342      4.83593149342930     -0.86570719962383
  N   2.74249700980049      2.59727859698961     -0.43983854781937
  C   4.34831110748730     -0.51070406683948     -1.44629521608135
  C   4.79739949026842     -1.06005842913370     -2.79248713874745
  C   2.98913199245636     -1.04199881299180     -0.87996496822465
  O   3.11436846091401     -2.26482940984264     -0.19111473419115
  C   2.02963864789050     -1.29701891427141     -2.05405208147498
  C   1.82728050561553     -2.72235995253709     -2.48585921758801
  O   1.49103527487305     -0.37250637627903     -2.60670442354823
  H   0.73933717857796      0.86249384165029      1.09327153206156
  H   0.62049643146871     -0.82754730246180      0.62717423792523
  H   0.41744326265592      0.43710924777543     -0.59756999243156
  H   2.97466802033246     -0.03857485397452      1.00088976880983
  H   3.60196667118752      5.49883821231815     -1.37595571912300
  H   1.94532121631673      2.86705929791931      0.12026239718955
  H   5.11003952560663     -0.78279566702279     -0.69926951280271
  H   4.07178438223963     -0.83272798588025     -3.57498348759844
  H   4.94797694298114     -2.13936970802980     -2.74491830164446
  H   5.74153955030261     -0.59466795413327     -3.07381886555075
  H   3.83040818121169     -2.19512036159165      0.44875833372423
  H   2.78788551322594     -3.21474634509053     -2.63762984031339
  H   1.23281148358942     -2.73543624459515     -3.39535690666606
  H   1.32216192914062     -3.27062282936996     -1.68897079091396
