33
Coordinates from ORCA-job 25687optt
  C   1.52372591845381     -0.67902589626728      0.20641508026305
  C   2.37135370997116      0.55201668935079     -0.12041333515602
  C   2.79768528417224      1.28251132016453      1.12498281856607
  C   2.05521926309411      2.38188564546797      1.57460284086315
  C   2.39529626255033      3.01830241837512      2.74870044419845
  C   3.49710650577381      2.58668422475328      3.49707564014892
  C   4.25616036218623      1.51722338469690      3.07717202989600
  C   3.88434739501597      0.87560620297423      1.89661124576285
  Cl  4.83580015772799     -0.49544795923543      1.39786034336987
  C   3.63590655204258      3.51663621885272      4.68156060980459
  C   4.08830271421631      4.88957054819440      4.10038315155119
  C   2.84771048389675      5.39451940501231      3.29723248730138
  C   3.15225896809518      5.77014443691983      1.85828931707118
  C   1.82309981429669      4.22331978312463      3.45956886707323
  C   2.16428006439446      3.83336089340440      4.88081862294905
  N   1.40099282450690      3.86303749151337      5.87787249574649
  O   2.06729811881755      3.48895610117055      7.04789381727893
  H   1.21060692894032     -1.18863212566723     -0.70520349084046
  H   0.63087028481858     -0.38986459291664      0.76279331820658
  H   2.08873374440596     -1.38371232881957      0.81669725626442
  H   1.79437828695324      1.23687361541462     -0.74410660062733
  H   3.24832565869835      0.25319840557072     -0.69576898152417
  H   1.20496170317386      2.71404743455020      0.98852227412175
  H   5.11143323922222      1.16180467307102      3.63662870607257
  H   4.19259350876312      3.15252520883755      5.53731433245361
  H   4.96294417449200      4.76913084095662      3.46049781083888
  H   4.34211484275220      5.57711410016274      4.90646207518540
  H   2.42062393539464      6.25661631503321      3.81308431597154
  H   3.59110987805484      4.92666872145054      1.32218746402250
  H   3.86172136457966      6.59842743421105      1.82164649036127
  H   2.24761897518656      6.07716570487166      1.32960792330688
  H   0.78939231790201      4.48064727103511      3.24909662365692
  H   1.37502675745034      3.52468841376606      7.71391400584120
