25
Coordinates from ORCA-job 2568optt
  Br  1.04420299617265      0.30573481982747     -0.03944783566542
  C   2.90410913651099      0.08655500822595      0.10474299234190
  C   3.57923746611703     -1.10888776372327      0.29318171681786
  C   4.98433835785926     -1.07177814033488      0.32231656120574
  C   5.76700634863880      0.02933956523709      0.11516245451765
  C   7.20639813362689     -0.38753749822668      0.03041485746040
  N   7.09090949852428     -1.85090595984569     -0.15330965772252
  C   5.82062504997294     -2.30477491059843      0.40911320233204
  C   5.08062356529713     -3.36223839363625     -0.39178247776191
  O   3.77513322072046     -3.52835319164498      0.17364875549890
  C   2.96514392185655     -2.45724337862833      0.41936669452018
  N   1.77021336124216     -2.62271930752582      0.77997773374372
  C   5.09219515536136      1.24002263788980     -0.04846416700316
  C   3.69044116314227      1.23527244674704     -0.03950171000805
  N   3.37899796395389      2.53768008987506     -0.24638783999239
  N   4.48558394602352      3.27895542387279     -0.37062377829735
  N   5.51602048061683      2.52881442683247     -0.25983456582255
  H   7.74703795436777     -0.10749219091269      0.94303013059700
  H   7.71762799035308      0.07400350253934     -0.81485955611027
  H   7.88493077006717     -2.34641474528207      0.22640425371487
  H   5.90006160902322     -2.65167871220241      1.44989620313055
  H   5.54114362608878     -4.34661496468421     -0.33957889254282
  H   5.01134202648060     -3.04707320131461     -1.43589845187159
  H   1.54634937498392     -3.61703837260154      0.81186155728802
  H   2.46932688299839      2.96637281011487     -0.31042818037082
