24
Coordinates from ORCA-job 25689optt
  C   1.07603251812252      0.25510873168954      0.03170750524165
  C   2.56572104207742      0.10970888585949     -0.03613620025528
  N   3.26696853502883      1.25116704549096     -0.08992696497901
  C   4.57070578645304      1.17773651259324     -0.13115763355914
  Cl  5.43209561240380      2.67669653408690     -0.24167287127554
  C   5.29492925311923     -0.01425261737728     -0.10464866565065
  N   6.71804852138339     -0.03211113657414     -0.08545754244339
  N   7.27317945173416     -0.75324573704038     -1.10925277520002
  C   8.52082936399456     -0.73555110231313     -1.33087446553880
  S   9.75437875557626      0.13496144422723     -0.47847306117450
  C   8.87592947077517      0.66509456973391      0.96675275559610
  N   9.44201531235479      1.21887728623634      1.94006057115985
  C   7.36426820121139      0.49999171067136      1.02943513856696
  O   6.75362577175954      0.85887633961706      1.99230261948417
  C   4.56414553025943     -1.20075425603320     -0.10488317462840
  O   5.14681696776114     -2.40995771609627     -0.13212651275074
  C   3.17592733859765     -1.13072020765819     -0.05975198929161
  H   0.71602284067920      0.78320353494248     -0.85179871957044
  H   0.80599440228618      0.85477891842752      0.90110506395926
  H   0.58183879319446     -0.71210801270405      0.09610018405423
  H   8.87765833861356     -1.32847305541210     -2.16453568296693
  H   10.45114984773882      1.30944041264272      1.82305505544551
  H   6.05356467237562     -2.32575331800134     -0.45991615762395
  H   2.60215367249975     -2.04671476700866     -0.04490647659934
