29
Coordinates from ORCA-job 25690optt
  C   4.50371470780995      1.70235968388649      0.43954484945368
  C   4.12098266890228      0.91487427141093      1.68449622008826
  O   2.73323061707211      0.68434377829690      1.75713970258548
  C   4.91054500772802     -0.39295641497681      1.88143958724399
  S   4.81456474531428     -1.42729141687866      0.43255052286743
  O   3.42701540223231     -1.49657443999366      0.03977649966864
  O   5.79511843110594     -1.00241008118224     -0.52769819264707
  C   5.29495845009133     -3.06493412420114      1.02403487967452
  N   5.74450702356857     -3.10635086229663      2.26858349687476
  C   6.12668015912979     -4.27935704720685      2.76562705121946
  N   6.53386959087615     -4.30285505287378      4.07837319124652
  C   6.06589265943644     -5.45928784133056      2.01666771988151
  N   6.43229078446683     -6.74699640869557      2.50552134904298
  C   5.58910760650010     -5.39128121255967      0.71196170422994
  O   5.50132567506094     -6.49270538764371     -0.02983835961311
  C   5.19610940233095     -4.15485546707998      0.18120424513981
  Cl  4.63579339657706     -4.06432468190390     -1.43392761878557
  H   3.98302228142259      2.65878721527021      0.45599672563134
  H   4.21693326233332      1.16673557546000     -0.46600197307748
  H   5.57935245936760      1.87885355712020      0.39881210517261
  H   4.35725289410565      1.51750125070853      2.56498554958804
  H   2.49503037871010      0.06829179721656      1.05091954302734
  H   4.48040380024338     -0.95250501582850      2.70907000280316
  H   5.96807093002583     -0.21267074407819      2.06718797083609
  H   6.73648675810058     -3.39615241368090      4.46902381070903
  H   7.16374231584451     -5.03672668104562      4.35628072283486
  H   5.96142675372325     -6.98764371682472      3.37000329248497
  H   7.43180065820182     -6.86408858993924      2.62635249202473
  H   5.77477117971824     -7.23177952914950      0.54091290979405
