27
Coordinates from ORCA-job 2570optt
  Br  1.12734989052556     -0.12934675379202     -0.86182645840018
  C   3.01513468672528     -0.04403583765222     -0.64303480738247
  C   3.64519565964048      1.18577976399082     -0.75990245879143
  C   3.36057563287374      2.66336700432011     -0.90504131118996
  C   2.40493799373726      3.46645643925791     -0.02241719961661
  C   3.23285749037517      4.75552139439131      0.22164334433973
  N   4.65364030323309      4.34607299983663      0.22006564559944
  C   4.68900126889634      3.24696534017510     -0.39100002249852
  N   5.69651212729589      2.29287138537046     -0.53768611053257
  C   6.90423853827124      2.04564073808477      0.27472831894520
  C   7.11048187104775      0.49622335111588      0.15987814179145
  C   5.71931179836238     -0.00184486539874     -0.17733171709628
  C   5.00531563497330      1.09716783029896     -0.57221419971703
  C   4.96253438017929     -1.16463041963299     -0.09016579612861
  N   3.63665851358955     -1.16636900209305     -0.34767590169847
  C   5.55985799115725     -2.40643289109330      0.30993296508874
  C   6.09729348318894     -3.42246388916246      0.64796106200102
  H   3.22593439701563      2.92749679923144     -1.96026645527388
  H   2.24615515155620      2.94568066984627      0.92349845871579
  H   1.43715511641157      3.65442062251361     -0.48213736506965
  H   2.99506298228647      5.23505217687032      1.16940227734716
  H   3.06751773798950      5.49039772928310     -0.57168931253393
  H   6.70510298935502      2.34306298971146      1.30811508432451
  H   7.75358334014558      2.61094441124273     -0.09823820981086
  H   7.50782174212409      0.07078971090916      1.07966273309480
  H   7.81003728743319      0.26294284749247     -0.64557904744294
  H   6.55573199161021     -4.33573054511776      0.94431834193554
