28
Coordinates from ORCA-job 25704optt
  C   1.01830293939041      0.46007795678311      0.22838975692056
  C   2.47559936658098      0.15203238078206     -0.04079992792201
  C   2.79275303704327     -1.31138049271541      0.22704767943542
  C   4.19282981715031     -1.73496226661929     -0.15575230577313
  O   4.36617110475003     -1.48763524795639     -1.52899805465934
  C   5.44359288237095     -2.08325077312458     -2.11999073559011
  N   5.74746948278925     -1.93996072027039     -3.32306909824833
  O   5.22113595475894     -1.11045111324481      0.59155046336178
  C   5.48646491614533      0.20549823070815      0.38006520954912
  C   6.79772576946028      0.57104436994353      0.11491448598069
  Cl  8.02367344481908     -0.63285803032344     -0.04276789391412
  C   7.12771631561341      1.92648640299814     -0.01042741126463
  O   8.38481068887323      2.32972739726148     -0.25307062947130
  N   6.22499893918033      2.87532624371916      0.10316675844582
  C   4.96609072903771      2.52802539036790      0.34165238863844
  C   4.53409714226179      1.22206975986792      0.49586228460111
  O   3.23425288751813      0.99336974562702      0.83362829631058
  H   0.37800334031835     -0.13913970377268     -0.41871835290493
  H   0.81625741705610      1.51396896025938      0.04501159980763
  H   0.77485697613781      0.23587038111569      1.26795006011473
  H   2.73208291950736      0.40400975614234     -1.07440216289975
  H   2.10098505986180     -1.93940664206062     -0.33819768313539
  H   2.64981579823355     -1.51598557473586      1.28994308527343
  H   4.34326098681284     -2.79536767234144      0.05705873023030
  H   6.03298876133835     -2.71014506131502     -1.45167333750831
  H   5.09944590939304     -1.31144650223394     -3.79914519379722
  H   8.96512133650371      1.56229015912634     -0.33366342855162
  H   4.23849607709360      3.32519266601165      0.44343541697060
