24
Coordinates from ORCA-job 25712optt
  C   0.96180473453252     -0.30403895745291     -0.12998279285310
  C   2.45699411911438     -0.03875941321241     -0.02189986661705
  C   3.05335846686883      0.29273318268663     -1.39796987444845
  N   2.63575097385676     -0.63171370566803     -2.44290764883840
  N   1.73055477485989     -0.20453252484847     -3.30781930211181
  N   1.26018882827624     -0.97643793417610     -4.17751375499663
  C   1.67753525488694     -2.32939792496377     -4.25491341565676
  N   1.24651482292000     -3.13314590770413     -5.12800645799296
  C   2.64497590148558     -2.72084829372086     -3.22638000791751
  Cl  3.20045145418409     -4.33227740636233     -3.16799163698674
  N   3.09143001063775     -1.89187190707320     -2.36397936843617
  C   3.21252137598382     -1.16881486073988      0.72457891318511
  O   3.82493562471590     -0.50469644243899      1.84739389488746
  C   3.43027482238144      0.77797735660948      1.77159375524811
  N   2.69613780814418      1.15010578676743      0.81738073618847
  H   0.76692673617535     -1.22494307524264     -0.68410939143713
  H   0.46221796572146      0.52238723215865     -0.63579595355830
  H   0.53702488391877     -0.40923468955621      0.86792609936478
  H   4.14281138786928      0.29180845690367     -1.35153730390137
  H   2.70474863650915      1.27498228219869     -1.70630794581761
  H   0.58562850739420     -2.64863957733470     -5.73685195785474
  H   3.99497293318375     -1.63863845646889      0.13297419666457
  H   2.53795668562040     -1.93437565431604      1.10763497975450
  H   3.78728329075930      1.41437243395502      2.57148410413175
