26
Coordinates from ORCA-job 2571optt
  Br  1.56152372312064      0.11872501510675     -1.06344187088980
  C   3.18108119890693     -0.14086839219329     -0.15991629021840
  C   3.87629088108084     -1.29105929737528     -0.15741111742240
  C   3.72730000153802     -2.51643760436645     -1.02352703774566
  C   5.12492732990455     -2.76692731033701     -1.64297328578950
  C   5.86303367448522     -3.37330481526968     -0.43617543615916
  N   4.82260570739928     -4.28496124443367      0.03723060304317
  C   3.55130499280446     -3.75984762998527     -0.15896546797399
  N   2.43002885605454     -4.16560715249833      0.25811984721757
  C   6.13748504984754     -2.30427302734634      0.64662856720948
  C   7.40354002254831     -1.43417298763867      0.67125708626273
  O   6.98652759430365     -0.17907340248244      1.27250754259981
  C   5.66952170766363     -0.06582606531874      0.95632692296759
  C   5.11697772063942     -1.20887896190057      0.53545434898226
  C   4.90691990211869      1.16338739893539      0.97834608887072
  O   5.20899176249263      2.24202580389862      1.37718924276097
  O   3.61411158605082      0.97141097931320      0.45543604487390
  H   2.91480592789125     -2.41216054435617     -1.73626839665194
  H   5.58875921412552     -1.85715617632939     -2.02171915316166
  H   5.06578488577132     -3.50525285507356     -2.44088019353444
  H   6.76193278273935     -3.92367384901446     -0.71268635872523
  H   4.98692657028388     -4.86961189336880      0.84273192828150
  H   2.51202034163302     -5.00017861644976      0.83718447748046
  H   6.03128443809489     -2.78932525398186      1.62333389678738
  H   7.76305597063539     -1.21927764879764     -0.34068085325282
  H   8.21125815786615     -1.83467446873656      1.27689886418744
