34
Coordinates from ORCA-job 25725optt
  C   1.04610057468891     -0.25939220781642     -0.36537824788616
  C   2.53515422605744     -0.26259786930324     -0.00715047431954
  C   3.02451305005750      1.20568895205322     -0.04071977512138
  N   4.44743955423282      1.32499836393167      0.23362796628627
  C   5.04330567674405      2.40595962479028      0.55514677116249
  C   6.49350685390665      2.31714284301426      0.74519327843580
  C   7.25403640246645      3.37044215840386      1.03240671134998
  O   6.75762006351804      4.62033875939416      1.18803478664143
  C   5.43181174083895      4.77263245640177      1.06227365716823
  C   4.56759997581563      3.78550053450539      0.77860162544422
  Cl  2.90393304909082      4.25303638503732      0.70811790541223
  C   2.78249616917437      1.78811953991289     -1.37466019685859
  N   2.63280135031328      2.24761212297500     -2.41437288488991
  C   2.83037331244638     -0.97328403377356      1.35254362308364
  C   1.92114629396804     -2.19945454690161      1.51056934207776
  C   4.27414589392570     -1.48877081906902      1.40500130926890
  C   2.58366413420283     -0.03599915345155      2.53846402599097
  H   0.86434719609323      0.30081384981799     -1.28223251999231
  H   0.45161760364164      0.19953219698145      0.42922013093572
  H   0.67225190541567     -1.26821265793945     -0.52183176484259
  H   3.08164748379891     -0.80352756893358     -0.78607101119853
  H   2.40837239287288      1.76737555937971      0.66434304491683
  H   6.94505168350048      1.34347903536038      0.62172413353588
  H   8.32493077818219      3.34539010830536      1.16494802834510
  H   5.11947060500602      5.79467308035761      1.21917624726977
  H   1.99682983474695     -2.86242312494238      0.64522519984997
  H   0.87432356988472     -1.92307763686099      1.63927133897624
  H   2.22663731105166     -2.76584752486375      2.39225537432369
  H   4.45167587500027     -2.20499768092812      0.59901855377670
  H   4.44351760843666     -2.00412269764709      2.35338311429207
  H   4.99746093102295     -0.68411569151977      1.30755560411175
  H   1.57825889336548      0.39215943180014      2.51213168174674
  H   3.30729953497903      0.78124036695721      2.56320707219839
  H   2.67965847155335     -0.59031215542915      3.47397634850825
