25
Coordinates from ORCA-job 2572optt
  Br  0.78458583583520      0.56391923113999     -0.09958042816679
  C   2.63107526524516      0.57058413378807      0.21814879941126
  C   3.40753549507661      1.66999012753173      0.15999480784645
  C   2.92486125862974      3.04533571910691     -0.22975656331905
  C   3.71119724234793      4.08909759733916      0.56989764052735
  C   5.07844290668369      3.94627912363934     -0.10176534132905
  N   4.69766492203861      3.81195780005677     -1.49351819465881
  C   3.42581488843763      3.29019411392741     -1.64948612493307
  N   2.76843285517050      3.00962831877007     -2.69003836412218
  C   5.76300487148139      2.66030344920073      0.42405938680250
  C   6.29379080140402      2.90131808950213      1.76927215805094
  N   6.69180010078103      3.12984113131718      2.81909810609910
  C   4.81006444090949      1.46303168175745      0.44223825484880
  C   5.29023755639686      0.23892930949449      0.73466537082777
  C   4.42674053773794     -0.92047059385015      0.77507791857569
  O   4.72630755703026     -2.05056969870901      1.00120237284318
  O   3.07895683725755     -0.64532572506734      0.51388243546244
  H   1.84563812387219      3.13015232588338     -0.16814626455590
  H   3.74183035869903      3.88562695089421      1.63952188987369
  H   3.31241636150707      5.08792358721434      0.40033052143628
  H   5.73629526763214      4.79972948073218      0.05379450319481
  H   5.36422999899278      3.83590980704804     -2.24745523362195
  H   3.28658971460630      3.20613107887729     -3.54507880029761
  H   6.60997926500879      2.41698970282595     -0.22261083754633
  H   6.33250753721800      0.06149325757961      0.96225198675048
