27
Coordinates from ORCA-job 25740optt
  C   1.19440518043538      0.32938808858985      0.12354234226021
  C   2.70128570451687      0.31709315067203      0.34715203602476
  O   3.38814088045179      0.93195450787823     -0.73439672443871
  C   3.09559913499784      1.13047321875779      1.58547591587381
  O   2.74381105181122      2.48131944844618      1.43563445583297
  C   3.15839453225720     -1.13187986472498      0.56101109289133
  O   2.86366030357192     -1.69253827152559      1.58802801388243
  C   3.93376170106029     -1.76246606829755     -0.56326261295788
  C   4.38675657797678     -3.18033082573639     -0.42874329724578
  C   4.34641236526287     -3.91797807543468      0.67966652325293
  O   4.81904446569426     -5.20721075545733      0.71701624636489
  C   5.33360167505379     -5.68979207963824     -0.41587850321935
  Cl  5.89177094642212     -7.29484758242216     -0.19086136106363
  N   5.43239929350552     -5.11276489786673     -1.52802987778476
  C   4.95503508081621     -3.78948965882803     -1.64421189359604
  N   5.00525654699651     -3.14213045884775     -2.73315993082477
  H   0.85051242166736      1.36110611299306      0.06047243773231
  H   0.68993470269341     -0.16769022267854      0.95069767139526
  H   0.93636018524198     -0.19544469154790     -0.80052863378552
  H   2.89434318891056      0.81653835192435     -1.55185405715158
  H   4.17381092888135      1.01724793087679      1.74885284115211
  H   2.57325684624597      0.73966227115380      2.45595573625829
  H   3.15840507325785      2.79489654877089      0.62345783206803
  H   4.79386908317311     -1.12249326943926     -0.78476579789177
  H   3.33733654283352     -1.67727689028824     -1.47916990719010
  H   3.95519572956277     -3.61219182233421      1.63409731057923
  H   5.42763985670148     -3.72015419499538     -3.45819785841869
