31
Coordinates from ORCA-job 25742optt
  C   0.77580458930687      0.37782956173744      1.06738437102170
  C   2.21756419509499      0.38091815506146      0.55659386404185
  C   2.87770042326916     -0.96297689460804      0.75857904202633
  C   3.93336684163274     -1.03317120004240      1.58427267482010
  S   4.69118967279973     -2.45196993206709      2.19370868648256
  C   3.54659080458280     -3.67719995112742      1.75675422944118
  C   3.82242121565756     -5.01308070034903      2.38488783095073
  C   2.52235734085602     -3.43710545855473      0.92270363979662
  Cl  1.42835218621406     -4.73790413878943      0.59554050085847
  C   2.29179756423379     -2.18845759621024      0.15565916514376
  N   1.61897582128794     -2.30149901567628     -0.91761588887172
  C   1.39326095897711     -1.26916205358407     -1.91136781664500
  C   2.68990507784279     -0.88869325824919     -2.61951019417268
  C   0.39209968227728     -1.85722235332561     -2.90116285889324
  O   -0.77332699222694     -2.29118994007787     -2.24260915304404
  H   0.30619137003682      1.34713612537623      0.89998641542079
  H   0.75399107096090      0.16643125332913      2.13719425628635
  H   0.17654722288518     -0.38299603850069      0.56493750943222
  H   2.79313514220979      1.12443156911768      1.11027089244908
  H   2.24584543180954      0.68840792655377     -0.48818361780088
  H   4.37275764510485     -0.12625600759788      1.98327369690453
  H   4.73169695504880     -4.98557406396809      2.98385556360361
  H   3.92785500972083     -5.77923137031893      1.61657817070427
  H   2.99004578907259     -5.30253210191327      3.02738808682516
  H   0.92046406144443     -0.38460053162007     -1.47617483679339
  H   3.12461108156540     -1.77303378456948     -3.08794967179811
  H   3.42525268209320     -0.48319018227510     -1.92403021988278
  H   2.49761113036935     -0.14451711415084     -3.39429322936933
  H   0.87287798558007     -2.68521934412022     -3.43687372696012
  H   0.09072190787970     -1.10143503728076     -3.62780851602670
  H   -0.47466386758740     -2.88593652219896     -1.54098886595133
