26
Coordinates from ORCA-job 25749optt
  C   2.44939439650153      1.29407258165181     -1.71502414874648
  C   3.37261416329554      0.44482181672935     -0.85970324127430
  C   3.55337750838229     -0.93330233431756     -1.42174420812155
  O   3.03621396061532     -1.40052998572863     -2.38247332052495
  O   4.43680573786817     -1.65977195819779     -0.63532442322010
  C   4.76726181082523     -2.89160278712322     -1.09027042402252
  C   4.28875209109594     -4.03587615121631     -0.61992263405625
  C   3.28522362215577     -4.33601737793637      0.40958715504693
  N   2.56943389044200     -3.65119833939756      1.18024458826907
  O   3.19694612501271     -5.71748863066742      0.44540062809198
  C   4.05565292768638     -6.26149074934291     -0.48005134201051
  N   4.07878270196575     -7.62688345466457     -0.47468420314375
  C   4.73344277968841     -5.31465017543195     -1.14966146125086
  C   5.69632950470306     -5.22525375834097     -2.21485556170855
  Cl  6.28376236802538     -6.65915493674020     -2.97525327214342
  C   6.12132498186098     -4.02998548756588     -2.62641687118201
  O   5.69710018955826     -2.83581791675005     -2.07567559603087
  H   2.32557723144668      2.28063215928089     -1.27138935053003
  H   1.46987627533208      0.82762331595182     -1.80740670259601
  H   2.85492458317165      1.41290692649667     -2.71881318851259
  H   2.99484187996072      0.33020718736322      0.15979376616121
  H   4.36628882394535      0.88697863393825     -0.76015488250081
  H   2.75815941998483     -2.66219626558635      1.04430385243176
  H   3.20662885713846     -8.05749561089729     -0.20476414571295
  H   4.51924556110923     -8.04829550884514     -1.27760562843703
  H   6.83403860822818     -3.87623119266178     -3.42013538427538
