29
Coordinates from ORCA-job 25744optt
  Cl  1.38665144550018     -0.16873749595976     -0.60528437554365
  C   3.08597394511140      0.00553675288551     -0.31234021141072
  C   3.63038559754108      1.20017702619126      0.16462535134874
  C   2.70672029726266      2.32684705369785      0.50637873634136
  O   2.97292190445775      3.49180666020331      0.38819917277708
  C   5.01393637692427      1.26296099491179      0.34874548452290
  C   5.76669026755747      0.10809537327972      0.05958906093107
  C   7.25708858107486      0.12176006230949      0.24392213342000
  C   7.98507973292112      0.97995883029098     -0.81153586374527
  N   7.37715109576028      2.24020677253199     -1.17228337856151
  C   6.40179261908323      2.35806227049902     -2.25904736733161
  C   5.79531842813206      3.57001716600571     -1.52673296566307
  C   6.60735148568719      3.12936409502757     -0.28901399045658
  C   5.75744041441356      2.48444632758912      0.82115652819508
  N   5.22380097682565     -1.01216294148763     -0.40382909586587
  C   3.91216417404923     -1.06423114064538     -0.59670826357862
  H   1.72423704779664      2.01235885182066      0.89356671907802
  H   7.61883298019660     -0.90324859705737      0.17887486529351
  H   7.49815906677157      0.49088827042733      1.24245462378442
  H   8.05830139796084      0.40389772958325     -1.73716670373073
  H   9.00902275144398      1.14445559647921     -0.46243732350293
  H   5.70847804227549      1.51168971041817     -2.34216852349207
  H   6.84810322883783      2.54199992662712     -3.23871526034431
  H   4.71572064384194      3.58324696033566     -1.40083828705632
  H   6.13257349171791      4.52072781566535     -1.93175888921808
  H   7.21868420604042      3.90818838833130      0.17528768209751
  H   5.07656774904107      3.24586823197048      1.19285835858784
  H   6.41083857761983      2.19713811081350      1.64770964407495
  H   3.49701347415382     -1.98631880274523     -0.98650786095115
