30
Coordinates from ORCA-job 25745optt
  C   0.46597602371544     -0.93850537014291     -0.47123932605508
  C   1.92923317937268     -0.99293971325694     -0.04624607663263
  C   2.91631117441160     -1.00904926951253     -1.21029692366339
  C   2.81454629855329      0.27933155889551     -2.08159593032268
  N   3.85425279424091      0.46206201775159     -3.11134247478071
  C   5.16958819488484      0.88752135456917     -2.75174483664115
  C   5.51501612879055      2.18514504838343     -2.90378341590473
  Cl  4.33990744266806      3.31783275194695     -3.46443009562931
  C   6.84586090150628      2.76942031907640     -2.64267221105245
  N   7.19233792454306      3.98035682377616     -2.76667397837222
  S   8.15948286302588      1.68656015428779     -2.15652461493777
  C   7.39024559550662      0.15950386004687     -1.93159540617702
  C   6.10972889981014     -0.10591129282818     -2.20082554593292
  C   5.35558069776414     -1.32948464183644     -1.82468136702569
  N   5.29472644415917     -2.10620563612571     -0.59323684189424
  C   4.35536509645537     -1.00816625062654     -0.78894195382690
  H   -0.19382721863390     -1.03045108262620      0.39137368481330
  H   0.23088684866602     -1.75317951967826     -1.15948150485495
  H   0.22351600834028      0.00053915963375     -0.96981291112969
  H   2.10402111967868     -1.88656530277257      0.55727221154031
  H   2.16100053568840     -0.13624638297695      0.59562484296650
  H   2.71995394098866     -1.88349608780434     -1.84086074585968
  H   2.85086718318143      1.15430570928997     -1.42560547274805
  H   1.85207019250593      0.30692545534532     -2.59289292289408
  H   3.90370212706538     -0.35564191315901     -3.70546677289511
  H   6.41607724236000      4.55962029631937     -3.07940151163535
  H   8.04197518738741     -0.59305546751803     -1.50417775230141
  H   4.99831696050864     -1.92003898646928     -2.66173471236775
  H   6.00028136116593     -1.84014232701294      0.08611179947017
  H   4.60399885168903     -0.11004526497545     -0.22411723325528
