22
Coordinates from ORCA-job 25751optt
  Cl  1.29239980741864     -1.38504672932306     -0.12006341318775
  C   -0.03835106326170     -0.31940764043078     -0.17792130693971
  C   0.02912590090993      0.98230922222391     -0.56065256988051
  O   1.19527461421827      1.59314864604806     -0.87641981227748
  C   1.11476718405271      2.93252476889052     -1.37538106345113
  C   0.89134020621810      4.04806491479724     -0.32440932664661
  C   -0.51265176594756      4.26367433525490      0.02175424632571
  C   -1.70312307115523      4.16387347010597      0.17378352539809
  C   -3.02252655544611      3.63840390015057      0.28494625313166
  C   -3.27475836303294      2.31945116289622      0.13955547266825
  C   -2.22554812779031      1.33247070810170     -0.08819194787567
  N   -1.08024516903028      1.71766780964285     -0.55357047644089
  C   -2.43275737740076     -0.06764749611660      0.31560133219707
  O   -3.47033379952149     -0.56583661360208      0.69968251039002
  N   -1.25846939057545     -0.80685138748270      0.21009384175372
  H   2.09400354361276      3.08715870188028     -1.82363825483667
  H   0.35010985366700      2.99797103340370     -2.14886638102224
  H   1.32121404343264      4.96380386783646     -0.73786547008843
  H   1.47049953051324      3.81037763163788      0.57133713398287
  H   -3.84093287248108      4.30721576433358      0.52124360853536
  H   -4.27592361026408      1.93985376961861      0.29564092208880
  H   -1.32811351813629     -1.77717983986725      0.48834117617557
