26
Coordinates from ORCA-job 25759optt
  C   0.86956731290929      0.02880414190887      0.14036217880570
  C   2.38554999198829     -0.01461081291979     -0.01243896808836
  C   2.78317593232369      0.05432311530270     -1.48244368588269
  C   3.01924585062212      1.11793839680879      0.81007471934279
  C   4.52195351416117      1.06276371046107      0.83253450354792
  N   5.05120457233540      0.23039490167958      1.66786900574468
  N   6.37200528354219      0.07458221716214      1.74710819102129
  C   7.26672200545352      0.77285867678557      0.96603037039236
  C   8.59784009390024      0.82011920288124      0.83795403527869
  O   8.95522968654962      1.75475659597654     -0.14001034652510
  C   7.84412699334167      2.33927682019205     -0.66806317153774
  O   7.87790084530962      3.17440037823165     -1.51951379546237
  C   6.69620303256103      1.71624316472681      0.03239237628743
  C   5.36801333054426      1.87317754203742     -0.04997712682035
  Cl  4.66490128679587      2.98888002563499     -1.13454665434632
  H   0.39720921651298     -0.78819477514725     -0.40651702829711
  H   0.47353736842216      0.96801423929488     -0.25467635524821
  H   0.57313583042420     -0.04680406327691      1.18777440954116
  H   2.75480601835459     -0.95619704063927      0.40650084556706
  H   2.43155858221273      0.98688869154597     -1.93008418954095
  H   2.34116695213568     -0.77420599554375     -2.03752919308204
  H   3.86573156015908      0.00507222812940     -1.61719802518825
  H   2.67376590673453      1.04049354957509      1.84163757514109
  H   2.68242223854152      2.08015670740626      0.42027540297425
  H   6.66925286872864     -0.59001804417829      2.43998025684131
  H   9.40877372543585      0.30888642596423      1.32150466953374
