30
Coordinates from ORCA-job 25754optt
  C   2.92044625519968     -0.29364390009793      1.25595214462872
  C   2.69791891741600      0.87249836107676      0.30098897453626
  C   3.30285508896781      0.64141495324807     -1.08135909599978
  C   2.85601101869840      1.72163075845578     -2.07327242781325
  C   4.81777362886020      0.60928513338595     -1.07449043305167
  N   5.40497654587109      1.15212773311843     -0.07008706107776
  N   6.76668457278225      1.19812302048928     -0.06979154330190
  S   7.57490213673951      1.55336342556384     -1.46665120715984
  O   7.15102853815934      2.80204514745140     -2.01314987281487
  O   8.95861522686675      1.31674981558881     -1.22059386871776
  C   6.82870292233421      0.26121586325874     -2.40169741179459
  Cl  7.84819374367170     -0.44293766560207     -3.58026705306787
  C   5.53444539405083     -0.02808854268118     -2.19955511592330
  C   4.82288151088603     -1.07716998861761     -3.01241187961916
  C   4.71635653533150     -2.39100834190482     -2.23363653165675
  H   2.44499513721771     -0.10792221501759      2.21917553590186
  H   3.98270169388266     -0.45900191647290      1.43454187623648
  H   2.49610799295869     -1.21457605649362      0.84895027278013
  H   3.10666777316524      1.79187628157342      0.72349360760551
  H   1.62562069892517      1.03404004310780      0.16541864285619
  H   2.94124722884278     -0.32729353974983     -1.43680091472785
  H   3.17353714171636      2.70275935719042     -1.71599863476940
  H   1.77016303780943      1.72172696393607     -2.17261888503386
  H   3.29219715923752      1.57318115385688     -3.06292731933060
  H   7.15504373531461      1.64536385467597      0.75199087047449
  H   5.36129021509474     -1.24119121646415     -3.94349773212237
  H   3.83087033867204     -0.71400956568050     -3.28125165529246
  H   5.70971208938563     -2.79530440427306     -2.03726198441801
  H   4.14973512007951     -3.12937543977161     -2.80025437405171
  H   4.22031860186256     -2.24087907315072     -1.27293692327486
