24
Coordinates from ORCA-job 25768optt
  Cl  1.25669213972730     -1.31020160859224      1.08534971316719
  C   2.59659394949404     -0.46179237359739      0.44572503717457
  C   2.79820311276516      0.84820214237277      0.64960861383329
  N   1.90958297419662      1.65679112017771      1.39691274357766
  C   0.94039634932194      2.27709672997296      0.54672157936667
  N   -0.27515166593520      1.96767753105843      0.46810186018227
  N   1.45016353465786      3.31091033885444     -0.22449096899701
  C   2.77295773461834      3.72079946556976     -0.38102223354742
  N   3.08815624800511      4.92038683829679     -0.67059063455059
  C   3.92627933932740      2.76513704700411     -0.39494086026659
  C   5.10338296339383      3.40158993965234     -1.09064925899184
  O   6.20685632263569      3.43976977130809     -0.62430389062830
  C   3.95327789572895      1.47260821971569     -0.00297285009679
  C   5.07410808947528      0.50878247226165     -0.25935068746915
  N   6.30465677494489      0.68034782092951     -0.04276067626043
  N   4.67771228668030     -0.76614771725922     -0.73840247676690
  C   3.53741635119229     -1.20753895561233     -0.39987207369123
  H   2.43526514853513      2.37088558187496      1.89400031570039
  H   -0.48895901184844      1.23044424700337      1.13404538956764
  H   0.74704097353304      3.89165853724578     -0.66002682330146
  H   2.28653495925572      5.54852704810058     -0.68431160803146
  H   4.88008164726699      3.83543852433773     -2.07534591080829
  H   6.49173597764001      1.60653999144396      0.33680729811698
  H   3.23501590538769     -2.19791271211948     -0.73123159727921
