27
Coordinates from ORCA-job 25774optt
  C   1.12619710218644     -0.47295239041825     -0.07921707787981
  C   2.59821945142044     -0.25121115081763     -0.22914408313668
  N   3.37998432920550     -1.32318282256707     -0.39929811385060
  C   4.66489105121654     -1.11793562580509     -0.61256059736498
  C   5.20247610216647      0.12466553469082     -0.90194058446624
  C   6.67375095348847      0.32818991737059     -0.96234703895832
  C   7.17290842251760     -0.19809409759506      0.34403763952768
  C   6.34868501224341     -1.37631253865763      0.87182224882139
  O   5.58105043433071     -2.03490089518087     -0.18847741513605
  C   6.89653182428990      1.32108754367607      0.12790027120468
  C   8.12676066534013      2.19208876993287      0.15515835458597
  C   5.56654114140587      2.05972133040660      0.37215044156045
  C   4.53386175314912      1.16747406184160     -0.27636554102991
  C   3.18235728962691      1.00790303845891     -0.01881427364269
  Cl  2.27553598464425      2.28249803098808      0.72714932047913
  H   0.89108069852751     -1.50493935676234     -0.32409048754964
  H   0.56435479848358      0.20096995980051     -0.72727472634212
  H   0.81142940711348     -0.26679954356627      0.94578523867048
  H   7.23070992089992      0.26186669692795     -1.88761154293244
  H   8.24089510239784     -0.36751660142436      0.41148373210064
  H   5.64407477775477     -1.09918322013123      1.65920910183365
  H   7.01313297452852     -2.14721901068460      1.25276504319213
  H   9.01360729617667      1.64053425699625     -0.15726239647740
  H   8.30788136436808      2.58308349375259      1.15823033715071
  H   8.00419615094810      3.04184837304125     -0.51960048901804
  H   5.63269889416567      3.05792541777879     -0.07032886004931
  H   5.31318709740404      2.19339082794752      1.42664149870729
