24
Coordinates from ORCA-job 2577optt
  Br  1.68500142425673     -0.19287406577711      1.30898196072261
  C   3.35013774500443     -0.27726560037117      0.47985150759470
  C   4.13208256296324      0.79210148351355      0.36770510394112
  C   4.09175173167237      2.20647638648575      0.78292426112145
  C   5.23406710005012      2.46205586144263      1.80573303513622
  C   5.71309784844736      3.69067149942535      1.08777574928999
  N   4.42496018628238      4.38886189401435      0.89721178394476
  C   3.32196843751092      3.52575387082758      0.96379016421633
  O   2.17146055143660      3.82765796850087      1.04080003597939
  C   6.42055125160124      3.12321439476999     -0.20103114987982
  O   7.17054050237011      3.80563433153806     -0.84037793075517
  N   6.29675883892537      1.74587518394364     -0.56963097551258
  C   5.44544367461951      0.63206795232635     -0.30969312018671
  N   5.88329230838466     -0.48074515151976     -0.75248698797426
  O   5.06921538367196     -1.58206699106508     -0.61309956246163
  C   3.80812286627830     -1.56493404888554     -0.05564901535440
  N   3.11793351380658     -2.61298634438873     -0.01050266246586
  H   4.45472137791293      2.57128937062719     -0.17649303460562
  H   5.96230119810524      1.66122615920846      1.88847790973529
  H   4.81618475544714      2.67884213014935      2.78812251947332
  H   6.43343357717165      4.34484780373887      1.57431737591538
  H   4.31848319004977      5.37971192487961      1.03698553281237
  H   6.99699967718689      1.51614746778385     -1.26542424273327
  H   3.61049029684445     -3.39956348116810     -0.43028825795363
