27
Coordinates from ORCA-job 25777optt
  C   3.56864135616913      0.52575861467480      0.69494999089201
  C   2.43546410064259      0.02384240584657     -0.21343325732922
  N   2.11068954345040      0.90930868848322     -1.31666743136913
  C   2.83518228734757     -1.32362482141738     -0.76499392967579
  N   3.43590483823995     -1.35920974793493     -1.91958890675336
  C   3.84211689000090     -2.55054653426162     -2.41483752665568
  C   3.60465465674059     -3.73615407400927     -1.69703317227242
  N   2.99066861889565     -3.69941649074530     -0.48805217910023
  C   2.63248939827140     -2.54439278273898     -0.03937661563745
  Cl  1.87244188922061     -2.50333723337479      1.51373154793435
  C   4.02717016582081     -4.97773095973160     -2.24066470579739
  C   3.77504790706533     -6.25545887265500     -1.48046459383106
  O   2.41457601806419     -6.44589088487925     -1.17773211453183
  C   4.66894109328578     -4.94255793781372     -3.44274893675136
  C   4.87322577913974     -3.68591894999259     -4.06749789744952
  Cl  5.71706943061463     -3.68689961666715     -5.58094171680809
  N   4.48402057497073     -2.54348927130632     -3.60645714582384
  H   3.29193801515109      1.48758520825682      1.12790127331400
  H   4.47701893776506      0.65574461435486      0.10419760788443
  H   3.77365570094895     -0.16960042767503      1.51101591536022
  H   1.53660479974978     -0.10823268014821      0.39081956608900
  H   2.84457523236502      0.88285746811571     -2.01614010521862
  H   2.01374759184192      1.86184012601257     -0.98819522842435
  H   4.38540138266908     -6.24786420101680     -0.57015175644314
  H   4.08827439421879     -7.10463749712453     -2.08681913794177
  H   2.15888942391449     -5.75747208143404     -0.55156831937891
  H   5.02058997343579     -5.84350206081797     -3.92625122428083
