30
Coordinates from ORCA-job 25770optt
  C   1.22381671770181      0.31835830079097     -0.22096985967848
  C   2.70732388725391      0.01714703006323     -0.16973278773841
  C   2.97805664545245     -1.40088980746321      0.29461131321595
  C   4.43203249852559     -1.85306294841237      0.23475174727528
  O   4.92668077722297     -1.90501566691294     -1.08991324397274
  C   5.39248222780105     -1.05844392048444      1.15099458882324
  C   6.69134576239248     -1.84518335384332      1.28997109878241
  O   4.79380901930535     -0.90345421210560      2.43480837029510
  C   5.62449870887069      0.35896536590124      0.63803921784662
  C   6.89547970315340      0.83386957761207      0.33557976648921
  N   7.18898159507517      2.09219614669057      0.00923492913017
  C   6.19464889855593      2.94737118364715     -0.01512141510249
  Cl  6.57949851292521      4.59614053057828     -0.39766990337200
  C   4.87139243368290      2.61315345094387      0.22184885099866
  C   4.58054213853868      1.29358564209537      0.52975541705412
  O   3.27780801462519      0.98733203701751      0.72636243718195
  H   0.72483624512827     -0.36351859288279     -0.90931728391582
  H   1.05343495964738      1.34167744355563     -0.55202445231099
  H   0.78743629879210      0.19690908003460      0.77141430410166
  H   3.14533167007591      0.18129504142864     -1.16230828193968
  H   2.40551232492029     -2.07990323131660     -0.34147226439867
  H   2.60773712489870     -1.50139029142966      1.31632295018271
  H   4.45937038975818     -2.88971204818764      0.58404126426042
  H   5.11839030211872     -1.00938761495373     -1.39166464671555
  H   6.46353299250166     -2.81870366497334      1.73002951050022
  H   7.38954097442768     -1.32702261809316      1.94607953751401
  H   7.15649061129604     -2.02458419109594      0.32153783011567
  H   4.88992667060133     -1.72889658917573      2.92146509388397
  H   7.74644936137485      0.16602087376874      0.36352259914313
  H   4.07761253337600      3.34214704720261      0.15782331235032
