25
Coordinates from ORCA-job 25781optt
  C   1.12582289871970     -0.12104811983226     -0.22509536698234
  C   2.62060776342389     -0.08892977018173     -0.09765686524278
  C   3.31911647011983      1.11140956719949     -0.04458776906887
  C   4.70450831969933      1.09747796620055      0.07543702636835
  Cl  5.62771014718284      2.55558451131386      0.12919661014162
  C   5.34060489326103     -0.12151276884483      0.13316041343001
  N   6.68688025378527     -0.42541621009758      0.29433241479908
  C   6.84214340209093     -1.85093311282473      0.06132245025895
  C   7.88870363445926     -2.35562930476535     -0.86564351348508
  C   8.05937407519015     -2.53524889091500      0.63270953259724
  C   7.90474566434140     -3.84299430021810      1.20454903297015
  N   7.74435554801194     -4.88770437240146      1.65128115500984
  C   5.45083910067610     -2.47855941449682      0.15187909119657
  C   4.55153850107242     -1.27175839766613      0.05991564527997
  N   3.24378039412941     -1.27844024006175     -0.04556363074770
  H   0.71014128019642      0.87994589263194     -0.32622779887789
  H   0.68510860511276     -0.59699704521392      0.65169810698427
  H   0.83908432639184     -0.71297140620883     -1.09462692363568
  H   2.79531287616388      2.05574549300046     -0.09912293784638
  H   7.34758933810662      0.19055717969204     -0.16012912487570
  H   8.55251506775273     -1.64107768076791     -1.33400336780055
  H   7.66976443614163     -3.23995535765285     -1.44784988076709
  H   8.78022904582107     -1.89984712619986      1.12898590303509
  H   5.31075843492399     -2.99126741763414      1.10689950655247
  H   5.26176552322544     -3.20042967405505     -0.64185970929355
