24
Coordinates from ORCA-job 2578optt
  Br  1.11926356655317      0.19719887963468      0.40079427355255
  C   2.99761800984068     -0.07017381000986      0.29147131839785
  C   3.51069153779314     -1.32518137736907     -0.00834843204274
  C   2.72320046576613     -2.58998303907239     -0.09457856091457
  C   2.81894659572426     -3.34376416403232     -1.42386824007459
  C   2.64575164122646     -4.81748299327258     -1.03304803962546
  N   3.12447970962567     -4.84038780266038      0.33467250600905
  C   3.19158320188473     -3.62997757619073      0.94471911030731
  O   3.53835845289889     -3.40082014738198      2.07425380670104
  O   4.07481242748574     -3.11655111535863     -2.05760973289445
  C   5.21218484336086     -3.44589595173242     -1.38259088000663
  O   5.86822626904475     -4.40786980867488     -1.65020621661668
  N   5.58197579864624     -2.52061778955621     -0.43383994302098
  C   4.90819099546372     -1.35116420445688     -0.10015097008479
  N   5.67629868690032     -0.30657744068494      0.17657282662324
  C   5.04822982387909      0.81477861132651      0.49069287924392
  N   3.73387733607733      0.99500636077141      0.52645785084779
  H   1.67406507669143     -2.38969635709426      0.12682768637995
  H   2.08503005114366     -3.01620455908311     -2.15427071192376
  H   3.24826111719313     -5.45338460300231     -1.68110350854152
  H   1.59654627258285     -5.11544518567261     -1.10332034852994
  H   3.33390069725353     -5.68361624115429      0.84398216079289
  H   6.53377747161629     -2.59714298231934     -0.10241750261639
  H   5.66372995134786      1.67295329704663      0.73290866803691
