22
Coordinates from ORCA-job 25789optt
  Cl  1.24301091523596      0.21370487723847     -0.57679179915478
  C   2.86892995394059     -0.02974696876941     -0.07457385097838
  C   3.71257067507426      1.04163688472440      0.10629378258622
  N   4.96298459435933      0.87215253067727      0.52745917902754
  N   5.40418701288679     -0.32764359709232      0.78792866553442
  N   4.64762390935171     -1.38243943562300      0.62292225668623
  C   3.39293410715142     -1.28738130328588      0.18792366370229
  C   2.58709789457946     -2.55180340166293      0.01903217933265
  C   3.32162526082720     -3.85453603692365      0.45025625642429
  C   2.72038673270020     -4.77600619814827     -0.54996678755429
  C   2.13052454535170     -4.13123996042339     -1.56912940505996
  N   2.18587675900947     -2.72938381738300     -1.40912068481682
  C   1.80886894833501     -5.11438011199779     -2.55291862068676
  C   2.25001045333222     -6.28363479063958     -2.01540815849068
  O   2.83140327997357     -6.09674628165548     -0.80151974388373
  H   3.39564069665467      2.05985865543070     -0.08188373686291
  H   1.68511549059816     -2.45136396207460      0.63544086582904
  H   3.12329784675577     -4.08871008953206      1.49532349359699
  H   4.40092572666168     -3.75505298662211      0.32402403814025
  H   1.31882014113412     -2.25155930843526     -1.61631286139671
  H   1.32295287860342     -5.00018328527283     -3.50652479443742
  H   2.20421217748326     -7.30154141252926     -2.36045393753749
