26
Coordinates from ORCA-job 25794optt
  C   0.97588437099839     -0.09863583945906     -0.18217009396873
  C   2.50471986060602     -0.05863537581163     -0.15391450468595
  C   3.02771035233327      0.33770584538459     -1.53484437752063
  C   2.97827798167931      0.95282963758226      0.89054437782455
  N   2.47461835786432      0.66013230964026      2.26235491933403
  C   2.00673963254633      1.71214686771268      3.04924965840766
  O   2.15990673905861      2.85462999350715      2.70701651296735
  N   1.34683980304801      1.38612517430236      4.24236057975688
  C   1.68800575808816      0.35011057058251      4.85996755038595
  Cl  1.05549715255755     -0.06766481498108      6.37380619725094
  O   2.62178387595248     -0.54224209685095      4.43635202680113
  S   2.62848040916802     -0.88417938514262      2.85176918929222
  O   1.46473272683898     -1.64301286004246      2.58858862221140
  O   3.91987217910666     -1.36805586465178      2.56728427719945
  C   4.49817962046625      1.17969469474447      0.97550391860317
  O   4.84391728269130      2.23966922828110      1.72099394878014
  O   5.31255876596372      0.49332980216073      0.44614326339461
  H   0.64041638399315     -0.83296639772520     -0.91380603274169
  H   0.58295966323038      0.87545016724026     -0.48546607117252
  H   0.53758710984893     -0.36554881877153      0.77742452217135
  H   2.90709624376071     -1.04446958586029      0.09557679215262
  H   2.70354490890883      1.35087211837239     -1.78817198297181
  H   2.61015479627090     -0.33633687892619     -2.28256703984159
  H   4.11141442613457      0.28925346381857     -1.59052580861677
  H   2.52050415828404      1.91608939611785      0.65198336842978
  H   4.06359744060107      2.73070864877560      2.02854618655643
