32
Coordinates from ORCA-job 25791optt
  Cl  1.36011799875249      0.29701070628526      0.89586833870874
  C   3.04283094462542      0.03171243506198      0.55668035199540
  C   3.91948543276887      1.04736085574539      0.92137907793307
  N   5.22281145304844      0.99999137074092      0.69082360310383
  C   5.68641052342671     -0.08082733286523      0.07193025950112
  C   4.88297355288248     -1.14084080508364     -0.31553358777456
  C   3.51150037912088     -1.12531088167278     -0.06637216855683
  C   2.60055404553135     -2.25157177863901     -0.52973548394248
  C   3.27208355743115     -3.65007654655855     -0.54853790047399
  C   2.60665599744310     -3.88566709047315      0.81285910006154
  N   1.67854092431609     -2.78607522350275      0.50592119673382
  C   1.89838179033240     -1.81146342924179     -1.83082703333544
  C   2.88187621095419     -1.70423587568334     -3.01191592208852
  C   2.10078643327819     -2.28127131963310     -4.19468634008420
  C   1.29048725695234     -3.38670968886397     -3.52668857422709
  N   0.87625563069503     -2.75110223907471     -2.28264208897521
  H   3.53014739778997      1.93204034959086      1.41257885378025
  H   6.75218899268844     -0.10376765703768     -0.12540267607355
  H   5.33605152676369     -1.97875379440678     -0.82489761281305
  H   4.35398267102953     -3.71711126487244     -0.59568254552816
  H   2.83390584910071     -4.27032324180583     -1.32812833789044
  H   3.28620519665003     -3.67009615223672      1.64294590433850
  H   2.12706224109039     -4.85007982525101      0.97826421137755
  H   1.43066965455703     -2.16713495545256      1.26568943565709
  H   1.43351980522655     -0.84045008717891     -1.63486930239896
  H   3.75756221525442     -2.33244309862703     -2.82111247940072
  H   3.23532165065562     -0.68697123076384     -3.17282513301584
  H   2.74414490375762     -2.64432542509675     -4.99497753944458
  H   1.42341605236424     -1.53115179733980     -4.60563321950553
  H   1.92539223603473     -4.27364147260776     -3.38304256129588
  H   0.42236658544699     -3.68989188263914     -4.11349301768275
  H   0.56331089003088     -3.36482162081608     -1.54193680868309
