29
Coordinates from ORCA-job 25808optt
  C   3.04721112735693      1.67373636481180     -3.57398489248150
  C   2.54983337948938      0.59157021663448     -2.62675111722492
  O   2.91766835488795     -0.69480873103863     -3.07691092944875
  C   3.00475323193693      0.83600028182620     -1.17036772177144
  N   2.53697034332241     -0.18663725340607     -0.23454233724464
  C   4.49981617232265      0.93006960858958     -1.08001502814976
  C   5.25310318910173      1.91320788639381     -0.47913806563438
  C   6.60079426160302      1.51474163693816     -0.68268826713772
  C   7.83328954158417      2.03213469753391     -0.35223601047565
  N   8.02952132557724      3.15490727876081      0.40451196001678
  N   8.93589567488716      1.35633128773434     -0.75608099936729
  C   8.89610294780552      0.18956228298279     -1.48946848989139
  Cl  10.43093889985778     -0.43979095580184     -1.89922584601902
  C   7.71199566116555     -0.37119023590689     -1.83984015083690
  Cl  7.63203741063187     -1.80816019882722     -2.76050881148980
  C   6.52131143562837      0.28596070769577     -1.42568195124305
  N   5.26766561767236     -0.05698100059992     -1.65684902186387
  H   2.64328803538084      1.50506484099374     -4.57177916418333
  H   4.13698123174311      1.64849958444924     -3.63398781247908
  H   2.74272356615541      2.66618528851487     -3.23415906494085
  H   1.45460892245629      0.59705004711797     -2.62004318229342
  H   3.86466817883655     -0.80342253032384     -2.88832211761505
  H   2.59085027564620      1.79678777295896     -0.85092663244440
  H   2.96618295591299     -1.07187167783811     -0.48770152584965
  H   1.53718581843117     -0.31888263829798     -0.35215613479495
  H   4.87875330153417      2.77786494329401      0.04574871033079
  H   7.20127204091642      3.70682876663337      0.56047091863066
  H   8.85760111370896      3.70441005500610      0.23543700972298
  H   9.84897598444679      1.68183167317056     -0.47480332382038
