29
Coordinates from ORCA-job 25804optt
  C   1.05906625207208      0.52965559174389      0.04400037508508
  C   2.43052686509402     -0.12725787891473     -0.06153127799716
  C   2.28532733985022     -1.60240545095208     -0.42892317898718
  N   3.17919736534991      0.57977255080491     -1.08457922235229
  C   4.45145783329119      0.64093675160686     -1.16186199592023
  N   4.87795036152765      1.41092629878697     -2.29367632474652
  C   6.11460589612697      1.75632357135031     -2.68624241663547
  N   6.24732301096678      2.48772056501455     -3.84143157452339
  C   7.13553114662052      1.27630836539446     -1.90423530152308
  N   8.51211365104587      1.35679034791083     -1.91719615397536
  C   9.39331917296313      2.05682902190748     -2.81554518188230
  N   8.99618536376341      0.65976183213752     -0.89775817551281
  N   8.05977536008717      0.12236193737321     -0.21436673364980
  C   6.84353538653506      0.46723023547128     -0.78649397812894
  C   5.56927015319768      0.13166124976883     -0.39851262488487
  Cl  5.37300171341211     -0.87281889556237      0.98433450823148
  H   0.44969055068289      0.03486203771602      0.80239731869612
  H   0.54469297809867      0.46553912188253     -0.91689885794501
  H   1.15746115792704      1.58314168582362      0.30682113738305
  H   2.91518938487674     -0.05237566491955      0.91417832438820
  H   1.77323108553349     -1.69043145198138     -1.38936343749448
  H   1.70119423081361     -2.13185161506014      0.32646872273099
  H   3.25979110016884     -2.08326918664506     -0.51111530204823
  H   4.07482876734329      1.71787020067378     -2.82842155893131
  H   5.46015091795571      3.06092089709656     -4.10385344479497
  H   7.13274515653624      2.94681769229306     -3.97651021944242
  H   9.24697775844297      1.71353823489764     -3.84108794056994
  H   10.41034460307521      1.83179539241960     -2.50568752674292
  H   9.23451543664145      3.13564656196138     -2.75390795782623
