29
Coordinates from ORCA-job 2580optt
  Br  1.54546941616722      0.74290006402937      0.94129790575799
  C   3.27632218997036      0.22297559117084      0.42577184883011
  C   3.71677827292560     -1.03479570189632      0.30248615177287
  C   3.10351292994337     -2.40531592533200      0.52247636327505
  C   1.61765210327056     -2.62833541825839      0.25273145938314
  C   1.29588618268095     -2.48105622126105     -1.22451844054821
  N   2.10765560293729     -3.43565621707122     -1.97177602920692
  C   3.52539590499996     -3.14203468373504     -1.85815368791049
  C   3.98388014008106     -3.27829746903280     -0.40336591275203
  C   5.38968086610372     -2.66016965902486     -0.22599731244736
  C   6.37350071142088     -3.10799812120918     -1.27898992924770
  O   7.00685883340973     -2.39011838562855     -1.99768211617713
  C   5.09587722030977     -1.18723544084513     -0.11428373184708
  C   5.90228071810193     -0.13938348039265     -0.34549687950949
  C   5.39305758124346      1.20766993041082     -0.17759484297500
  O   5.98452280099311      2.23136400965336     -0.32551536308704
  O   4.04171699159224      1.29368892960225      0.19233560236807
  H   3.31840146712097     -2.68988313606123      1.55934481613463
  H   1.38158979280877     -3.65272277916582      0.55073231680234
  H   1.00460908050734     -1.96263713467831      0.85510152017170
  H   1.47993257865377     -1.44108684678548     -1.53902607226112
  H   0.24336264573070     -2.70117713218518     -1.40164773043818
  H   1.83256728078573     -3.45408179057848     -2.94490186108090
  H   3.76993466087222     -2.12478486836708     -2.20861562566081
  H   4.08228274445434     -3.84049448033175     -2.48642760340473
  H   3.94489434656408     -4.32616678246245     -0.10416242272251
  H   5.79338440452844     -3.01230944546703      0.73329202171032
  H   6.47718522691072     -4.20929485216042     -1.35032388154515
  H   6.92480730491163     -0.23056255293621     -0.67609056338434
