25
Coordinates from ORCA-job 25813optt
  Cl  1.00745899395211      0.11546199911478     -0.11228775115555
  C   2.73438822866099      0.12400244833908     -0.01347569285910
  C   3.43746883514773      1.26816214529929     -0.09664061674639
  C   2.74772177782428      2.59356179734444     -0.33001140495462
  N   3.50312623728013      3.67522584053006      0.25451677588087
  C   4.84252242630766      3.69556226558109      0.05200108121763
  C   5.54712740922184      2.54379019253089     -0.16629300315906
  N   6.91907069043166      2.61335765537281     -0.34815068523732
  C   7.57101054219335      3.79849767133951     -0.32152715824492
  C   6.93558181357591      4.96586916667664     -0.07013684336230
  C   5.50858496637409      5.00755164292067      0.13741973152699
  N   4.75757778810942      6.02336615939755      0.37009744431877
  C   4.89218518154887      1.24780745782357     -0.06229464624556
  C   5.63070608995438      0.11433659318285      0.10447321489702
  C   5.13570082447772     -1.23276589287348      0.22580858689023
  O   5.81323399859957     -2.22000987709836      0.37003899191221
  S   3.35905074862019     -1.47575525183918      0.15707297276001
  H   1.75175944823558      2.58187211705417      0.10309422537825
  H   2.63992008733356      2.73516795267738     -1.41651474141271
  H   3.09503649167590      4.60184394350991      0.29192048621828
  H   7.40793259827781      1.79094884014274     -0.65607644488616
  H   8.63334155168106      3.75086033250180     -0.51631461850420
  H   7.50212330188809      5.88604805419157     -0.04810815686322
  H   5.29761977800956      6.88371927594595      0.41734486200820
  H   6.70775019061846      0.15951747033423      0.20204339062265
