28
Coordinates from ORCA-job 25818optt
  C   0.82553950901517     -1.40249750995469     -1.69799067582238
  C   2.32932614009735     -1.40335620391964     -1.93121801849333
  C   3.10680370240427     -1.14539118484457     -0.63875921448020
  C   4.59079044757504     -1.07747333355805     -0.84439564234993
  C   5.40639941281384     -2.17258713380389     -0.75720782240999
  O   5.08122459165307     -3.44892093967474     -0.48640354981490
  S   7.03688425681065     -1.73826726499526     -1.03468354265808
  N   6.69539758316503     -0.15374339826684     -1.27543651344796
  C   5.40295826842858      0.05792373267651     -1.15578920679751
  C   4.91633692285086      1.43860693566527     -1.33097798458792
  C   5.77420710175418      2.53059790625715     -1.24820921310865
  N   5.35219096215089      3.77687856507496     -1.41268597936081
  C   4.06481822305826      3.97752666832064     -1.67026210098451
  N   3.63689779950633      5.24877034093651     -1.88132894128948
  C   3.20340173716095      2.86149044911484     -1.74360240276954
  Cl  1.51277911945707      3.11833122492729     -2.05746996044912
  N   3.61671840247337      1.64206776302838     -1.58014854687911
  H   0.27861506216130     -1.60821598404816     -2.61796142347736
  H   0.50085211383440     -0.42976697743497     -1.32370182710843
  H   0.53938069503106     -2.15669488050727     -0.96143415189968
  H   2.59676453048691     -0.62693057018563     -2.64985849950496
  H   2.65050324258439     -2.35648094111562     -2.36281474058506
  H   2.87484551312443     -1.93444487675866      0.08889376603601
  H   2.75394902371617     -0.21632885287035     -0.19185947005426
  H   4.12271981696487     -3.52259716945850     -0.39904858066965
  H   6.82510753145306      2.38052893093973     -1.03839221032079
  H   4.28200454401812      5.98295133993501     -1.64263104469438
  H   2.65258374625030      5.44902336452053     -1.85662250201799
