26
Coordinates from ORCA-job 25824optt
  C   0.99917117898804      0.07129104673487     -0.00634226814704
  C   2.49776527960467      0.05576391899803     -0.00605601842202
  C   3.25066915155903      1.23838043425671     -0.08157806217968
  C   2.60180392418106      2.50904481196543     -0.18850913653406
  N   2.14859444024161      3.56035989938556     -0.28803570694178
  C   4.65287956035625      1.24715606792370     -0.08654980038766
  N   5.37910713418286      2.41295527356542     -0.12096051633865
  C   5.32702101610292      0.01718452455991      0.00404879191944
  N   6.73573336136648      0.06233427139899      0.02706478658142
  C   7.53712081521172     -1.00695389868345     -0.34739569383084
  N   8.65654387358583     -1.22007315476328      0.29775032352061
  S   9.47563909434803     -2.45404542985254     -0.41112144308674
  C   8.30388553294241     -2.74264653184732     -1.60508698621891
  C   7.27553402146062     -1.86504758657172     -1.45893528062017
  C   4.59950959227741     -1.15492908393511      0.08600921598931
  C   3.21032541334506     -1.13010255211503      0.06812914876015
  Cl  2.35964067997823     -2.63902321139670      0.16746236812042
  H   0.60874348822499      1.08036258979266     -0.11537751246423
  H   0.61739731787209     -0.35374299014306      0.92352805433340
  H   0.61418236851318     -0.54491675999408     -0.81982477273073
  H   4.88158041547977      3.25371366941008     -0.37409970147297
  H   6.30210253690054      2.33202866473282     -0.52117790172208
  H   7.13317804085498      0.59380814762839      0.79285515582824
  H   8.41848971776269     -3.51344579256995     -2.35121195026152
  H   6.40237233674574     -1.80971875822804     -2.09045958101014
  H   5.11300970791370     -2.10273757025229      0.17987448731626
