28
Coordinates from ORCA-job 2582optt
  Br  1.46223836585443     -0.57912198139757     -0.17426145685540
  C   3.32710526685894     -0.23231001241216     -0.34003846549967
  C   3.78990366203378      1.06307154779947     -0.20896892112555
  C   3.10349337076979      2.37632931626632      0.09182599082930
  C   4.10017320915583      3.35844671524585     -0.55399895570969
  C   5.43199658055837      2.74949874202716     -0.08590563706898
  N   5.55429274457901      2.98793386289803      1.35193816580813
  C   4.51809593829352      2.42924802951399      2.20977186713538
  C   3.12065658022799      2.64629370862191      1.61906878814200
  C   2.09464034853893      1.81570380567359      2.35280030618264
  O   2.34235330964523      1.14822842721068      3.31743785291077
  C   6.61896180359176      3.66710215740631      1.84658364040281
  O   7.53279133277505      4.10886818602625      1.18959894339240
  C   5.16195510818610      1.27206588630478     -0.32210689361182
  C   6.00865908586167      0.20781251610116     -0.55706575353013
  C   5.41750013304922     -1.04564146450471     -0.69423936114432
  N   4.10787450679211     -1.26170950935645     -0.58900322344217
  H   2.08927297951800      2.43819629053805     -0.30137543714459
  H   3.97810843418408      4.38758058044988     -0.21913013270277
  H   4.02753418287694      3.31542836399533     -1.64080289557453
  H   6.32366667538462      3.14228032538052     -0.56604979399990
  H   4.59040249340647      2.88606406034905      3.19564229629106
  H   4.67111438408847      1.35536864187248      2.34311104438283
  H   2.81069495449985      3.69067593443032      1.75130656275394
  H   1.06718122711026      1.87255123084992      1.94635241335137
  H   6.56431435727866      3.78732551610203      2.94089251536107
  H   7.08000306816573      0.32919072788733     -0.64353539070287
  H   6.02301589671513     -1.91948160527954     -0.90384806883133
