28
Coordinates from ORCA-job 25831optt
  Cl  1.47781143528054      0.28696279151724     -0.65097625717582
  C   3.13786934023146      0.25293734174994     -0.22506603142801
  C   3.54221893487861     -0.04420450298884      1.01866527698644
  C   4.96044633052667     -0.06241964166121      1.28844824277125
  N   5.58207392840761     -0.34649458127557      2.36418350681823
  N   5.71479098641823      0.29350118323030      0.15911557493967
  C   7.16386454441651      0.30251039960316      0.24832905579861
  C   7.72725487758799     -1.12486939868429      0.24200970898766
  N   7.29199023757989     -1.84241145340350     -0.93378754325028
  C   7.71551926821855     -3.23538855902626     -0.97964048005127
  C   7.11040919869743     -3.91238542476504     -2.20703822517438
  C   7.49470103592948     -5.31720997329770     -2.29399411416058
  C   7.82657846370526     -6.46680674221411     -2.33825252703329
  C   9.20222020264995     -1.03668561642947      0.35907155265464
  N   10.34637118685480     -0.97475875145442      0.38754414893416
  N   5.22881124058090      0.56461350423885     -1.04273357117846
  N   3.98927574401185      0.55786850108812     -1.26673287628965
  H   2.84511335705946     -0.27828430582447      1.81023560133126
  H   4.93108971328675     -0.57168308647486      3.11012853769982
  H   7.45242805865403      0.80343031062278      1.17030051157488
  H   7.52791200990278      0.85793758699427     -0.61382793368460
  H   7.35583655610831     -1.64285404391099      1.12852929582876
  H   7.58684046915113     -1.35215261576112     -1.77361845412895
  H   7.35073764112877     -3.73005538200672     -0.07705192664021
  H   8.80681004182544     -3.34758832233014     -0.99664486575048
  H   7.44071166459554     -3.39391154937928     -3.11177379410802
  H   6.02323121846174     -3.82383401799472     -2.16716938071396
  H   8.11808231385014     -7.48876365016194     -2.38325303355739
