28
Coordinates from ORCA-job 25839optt
  C   0.88465774624696     -0.12169312067451      0.01444586562045
  C   2.40736923672460     -0.08741290541394     -0.04472335587113
  C   2.93175460837003      1.15124013584432     -0.82125648242041
  N   2.09801403735082      2.33062306662512     -0.68112407885578
  C   3.12726883243617      0.59792127768760     -2.21391561404546
  C   3.14499440015757     -0.74617786821096     -2.22636557096174
  C   2.96650691225243     -1.30705425847845     -0.83174998151679
  O   2.20179129002261     -2.48217546970054     -0.74538048254370
  C   3.40592320144945     -1.40606854187760     -3.46922160842273
  Cl  3.52065425763601     -3.12597956080631     -3.55339503397952
  N   3.57325596947633     -0.76217216618293     -4.56489294600296
  N   3.52392754152561      0.57867759430229     -4.54850339713882
  C   3.75282254751470      1.21589514526059     -5.83002684280853
  C   3.38147767167487      1.37439747130535     -3.41064468342850
  N   3.46031677448676      2.65445319736164     -3.38091869811694
  H   0.51111513033285      0.75379225958827      0.54275394266585
  H   0.54439044253839     -1.00874385125061      0.54731212433945
  H   0.43693508018454     -0.12933280308395     -0.98524587583998
  H   2.79268670602813     -0.08534402342899      0.97412394627188
  H   3.92264651213320      1.41811584365615     -0.43861570352448
  H   1.18468133574536      2.16435214267789     -1.08984662068023
  H   2.51352509506931      3.07980891173204     -1.22599596547916
  H   3.94885114692364     -1.58600754867041     -0.44113617378295
  H   1.34073292900983     -2.33383535641203     -1.15009284487683
  H   3.81698497038661      0.43329513034217     -6.57747257592991
  H   4.68432463130731      1.78684329598785     -5.81466396540804
  H   2.92769966680886      1.89065412672518     -6.06560458286079
  H   3.66569132620702      3.06592787509478     -4.28484279440225
