27
Coordinates from ORCA-job 25834optt
  Cl  2.74200278447128     -0.08249966227817     -3.50342056573493
  C   3.04791726604681      0.03620730526493     -1.82208887964948
  C   2.54931604075884      1.06007360910178     -1.09883151938668
  N   1.79273874398093      2.11080633014754     -1.64205415365957
  C   0.64699750199786      2.22685362055419     -1.10690194204069
  N   -0.12067339808969      3.35199074222692     -1.13433622594058
  C   -0.70625624310107      3.65921775771241      0.17936155266881
  C   0.33609651108864      3.85075636795858      1.31095415136869
  C   1.21244787187248      2.63656956494861      1.68879662334693
  C   2.59923396787440      2.53699302698760      0.98138124207786
  C   2.91908572408252      1.21242484949059      0.30940619143086
  N   3.54425324486944      0.35142575158365      1.03930455769935
  C   3.97046184468139     -0.88201928193048      0.60305085675076
  O   4.38860687727558     -1.74594780369278      1.31721821074773
  S   4.00123986682133     -1.24191997856212     -1.17234710291681
  C   -1.53986199811334      4.85686107932727      0.07144123885140
  C   -2.18370210306221      5.86357827085878      0.01272179804073
  H   0.20761592067823      1.43052509962681     -0.50024117835054
  H   0.33689871091277      4.14225389464944     -1.57491339063536
  H   -1.34931422193435      2.81344090908812      0.44324324286213
  H   -0.23409847809138      4.15501932640320      2.19066087497211
  H   0.97045290426459      4.70160546474218      1.04790972276467
  H   0.64946040767615      1.70790356103756      1.57862756653247
  H   1.40985285049505      2.70899617930340      2.75747180991249
  H   3.37662649872364      2.67320419325303      1.72971377290547
  H   2.69588557018902      3.33186987623339      0.24240384107443
  H   -2.76728466636893      6.75180994596353     -0.04353229569226
