23
Coordinates from ORCA-job 25849optt
  Cl  1.01036835026109      0.25096859588681      0.06005638553278
  C   2.72545286374839      0.09182768138649     -0.02841838066294
  C   3.53540226596745      1.13534699930748      0.25258345261891
  N   4.88222804435164      0.99027699514820      0.18122217173786
  C   5.54784952856002     -0.17891001761419     -0.16324676079543
  C   4.66078890748647     -1.28287082479215     -0.47663280662222
  C   3.31732552939255     -1.14672011013802     -0.41393834480743
  N   6.83206174101783     -0.12174247803146     -0.19303622929818
  C   7.57450989694381     -1.28381937928829     -0.41925931441844
  C   8.60735857212089     -1.32074796826499     -1.29232343962248
  N   9.34844000986202     -2.45465613392335     -1.42782652127481
  C   9.09509083716270     -3.64748884212364     -0.73457465445622
  N   9.71372172660233     -4.74206152426131     -0.93492192602354
  N   8.10528215494857     -3.56459906140149      0.24127161174205
  C   7.42031654644688     -2.48350587256769      0.36670982708599
  H   3.16419532341473      2.10744843797080      0.54217103014997
  H   5.48725721311945      1.77216086388170      0.38836121670048
  H   5.10340234181504     -2.21607998342389     -0.79352603127229
  H   2.66975346447968     -1.97616410448257     -0.66846186724337
  H   8.89072836135763     -0.47006389755459     -1.89681051438524
  H   10.10596802111370     -2.46140397570838     -2.09125219953791
  H   10.40166740164858     -4.66028439030770     -1.67912445096427
  H   6.67383089817852     -2.46991100969775      1.16097774581674
