27
Coordinates from ORCA-job 25842optt
  C   2.72248506196599      1.29126302598323      0.52667248036945
  C   2.35999081070717      0.04389059910378     -0.27212756465940
  C   0.91278848131248     -0.37539943010103     -0.04035089443812
  O   2.60129506196217      0.26431904445449     -1.65282627616916
  C   3.27050687777614     -1.08793627636453      0.15329546308627
  O   3.23637506332869     -2.27828698285363     -0.60367365547749
  C   4.42392265463661     -1.51617642108275     -0.65394014393754
  C   5.59284505593781     -2.12638241869420      0.01545556331959
  C   5.57080292517005     -3.27743833592827      0.69987448504021
  C   6.78415121394930     -3.69321124475595      1.34173708457455
  Cl  6.74186455024790     -5.14352965171207      2.25434159781846
  C   7.90624716802014     -2.95549204968763      1.22784186776970
  Cl  9.38308076075568     -3.39259923215346      1.97326455881897
  C   7.91352680378598     -1.72367059814870      0.42671147595132
  N   8.86796694621549     -0.94767921702264      0.17081030338244
  O   6.69482126195474     -1.37206380877706     -0.11368104695885
  H   2.07954545170413      2.12047180486075      0.22695469553606
  H   3.75865547122493      1.56879676005351      0.33152166000741
  H   2.59262720419861      1.12879894888070      1.59773547787816
  H   0.23667633054264      0.43077910881100     -0.33527262152097
  H   0.73555021640334     -0.59044177386826      1.01428511278314
  H   0.68570407219602     -1.26572056423756     -0.62630819900688
  H   1.86357603656553      0.75578704110895     -2.02568208704053
  H   3.32677457214610     -1.24727312474884      1.22805290676299
  H   4.61689602233106     -1.00107386891161     -1.58792309672969
  H   4.66689891233419     -3.86177942143360      0.76058372706961
  H   9.72642501262700     -1.26995191277460      0.60564712577030
