28
Coordinates from ORCA-job 25848optt
  C   3.54406393664060      1.19378974285666     -0.46087555541888
  C   2.60115407790043      0.05484406950537     -0.07371682170115
  C   1.22240375731956      0.38985363777126     -0.45693665512015
  N   0.16105116100692      0.67267759763570     -0.78336014461663
  C   2.98474691295489     -1.27886699701611     -0.70197026771140
  N   3.81166871866251     -1.23930182696869     -1.73634951794720
  C   4.16662696883907     -2.37018584246634     -2.33862515855463
  C   3.70049629312426     -3.61001039609828     -1.90811955657052
  C   2.83815731279789     -3.68792265317450     -0.82800503931516
  C   2.30731154234732     -5.00029523350741     -0.34141144706456
  C   2.47943829088883     -2.48291375676012     -0.22104755933567
  Cl  1.40311463594421     -2.49724072348028      1.13213764497250
  C   5.07768407192339     -2.24347885546365     -3.50932882134102
  C   5.65341514158887     -0.91739395758926     -3.89383018271838
  N   5.31229215509480     -3.32059408510768     -4.14620236033252
  O   6.14968964459671     -3.11296182707116     -5.22221795316020
  H   3.24837988481343      2.10583837907648      0.05463678041285
  H   3.51609908152702      1.36358680276272     -1.53437072567424
  H   4.56350841757564      0.93338007175192     -0.18154961186236
  H   2.59858409389412     -0.06688459723438      1.01193533089940
  H   4.01347722101461     -4.50541237153735     -2.42662214676825
  H   2.71583106782180     -5.81979822837867     -0.92834539900066
  H   1.21856678676797     -5.02124096623107     -0.41368771839483
  H   2.55900939423946     -5.15388894177405      0.70881682165039
  H   5.32129959147732     -0.14490660978210     -3.20887917432096
  H   5.35286899952028     -0.66670374002969     -4.91163492906728
  H   6.74234961340087     -0.97943074279403     -3.89224247547805
  H   6.23571122631713     -3.98753794889522     -5.61319735646039
