31
Coordinates from ORCA-job 25840optt
  C   1.12545438330662     -0.04093817571168      0.08186673836573
  C   2.61944885598416      0.06101291734512      0.06981872799409
  O   3.30193679512010     -0.52093414962840     -1.04341906103191
  C   3.31940791388985      0.89543827140529     -0.89921506273872
  C   4.70082948597835      1.51614850693572     -0.69800724632918
  C   5.38642833462264      1.02076035077360      0.57994715569388
  C   5.57295657762289      1.04707649900454     -1.87779866843824
  O   4.99118460288111      1.25753215716759     -3.14676283526745
  C   4.55494885582611      3.02770034685140     -0.69468762018861
  C   5.00823832992167      3.88547776542243     -1.62651544560516
  C   4.74581479672006      5.30192427385752     -1.66467229600483
  C   3.74776001566162      5.81869983627477     -0.92920074992525
  Cl  3.21101479431426      7.44353365563461     -1.07852930645274
  N   3.04953378779107      5.05362660872711     -0.03439818210194
  S   3.77050592075670      3.74737873785492      0.70166397163510
  O   4.76075537052101      4.21652089938467      1.61692794452254
  O   2.68849054284675      2.95168117145838      1.19959953947144
  H   0.80999335140957     -1.03747450513519      0.39247259439163
  H   0.72147504873731      0.15856582470937     -0.91040345190424
  H   0.71868320691098      0.68731558488868      0.78418512709984
  H   3.11307734127735     -0.12298844119871      1.01818982327855
  H   2.70584572031573      1.41757645838623     -1.63059575252492
  H   5.40280641892451     -0.07054992434361      0.58265212517674
  H   4.87798854251063      1.36294820165672      1.48056766688964
  H   6.41424057749117      1.38427216739036      0.61384796781092
  H   5.78448960566027     -0.01311146790365     -1.72165467840229
  H   6.52232422188978      1.58495472966900     -1.86804493962484
  H   4.32522683244766      0.57836368785164     -3.29554532621170
  H   5.56263651737560      3.47876468870938     -2.46345168997957
  H   5.28022956163192      5.93449909520099     -2.35494430985316
  H   2.16727368965238      5.36122422736115      0.35110724025466
