28
Coordinates from ORCA-job 25845optt
  C   3.48161785788196      0.43841399716049      1.10636163809066
  C   2.42710046603460     -0.06081734215149      0.12589304637641
  C   3.01809946061035     -0.90458791844267     -1.00172322335537
  N   3.71534027466279     -2.10152049645267     -0.47789250594765
  C   2.82773704351606     -3.13282525767171     -0.41469180755488
  N   2.93191780534901     -4.24778445200092      0.27579900771526
  C   1.91347221198409     -5.09452137918515      0.15401382784019
  Cl  2.02847166307925     -6.56075018313894      1.04167348157845
  C   0.79628944015204     -4.82563063918014     -0.63297542877652
  Cl  -0.52918024248277     -5.91065420898597     -0.74764726177676
  N   0.71739062635327     -3.69043569320655     -1.33417666169131
  C   1.71819454202903     -2.85930115526463     -1.23202725523790
  C   1.95153061651594     -1.55350294491325     -1.94028966694654
  C   2.56769790485271     -1.84398757482948     -3.32506450042716
  C   0.72695176697319     -0.67899618257307     -2.19150975424486
  O   -0.45211644113871     -1.29697962049797     -2.24285129613270
  O   0.82984912664701      0.49356857982250     -2.40775860809385
  H   3.03439329287126      1.10582205464222      1.84190430086293
  H   4.26467211930819      0.99487347108411      0.58691403942534
  H   3.95161431945094     -0.37693116366325      1.65889832828523
  H   1.91271613816513      0.78718173391662     -0.32315233458279
  H   1.67209769464467     -0.65337710593102      0.65516973514116
  H   3.71481885172911     -0.30576732098265     -1.58946496491016
  H   4.40659161540057     -2.00334539986351      0.24948909966094
  H   3.49158884606511     -2.41033241147066     -3.20532192881159
  H   2.78416164743165     -0.90226548439045     -3.82829641160957
  H   1.87611740501917     -2.42442454530220     -3.93627206214741
  H   -0.37513605310562     -2.24912135652758     -2.04100083272953
