19
Coordinates from ORCA-job 25852optt
  Cl  1.52916979123513      0.10383844387668     -0.88791414397818
  C   3.19686584412856     -0.07120719849732     -0.47160811757104
  N   3.90747052136025      1.03888238538403     -0.44396172561201
  C   5.20126313489324      1.00137309858504     -0.13310168408009
  C   5.76576574433519     -0.21419824211794      0.15674442059349
  O   7.05787600122127     -0.53351047241301      0.49630218653414
  C   7.01903367171203     -1.87867072647445      0.64982633186035
  N   8.17601642113076     -2.46876158438522      1.03239200687970
  C   9.44409746282962     -1.79405973986779      0.87259746352456
  C   9.87026554583569     -1.67931213986603     -0.53451834931173
  N   10.18709249112275     -1.60781437031045     -1.63223646398745
  N   5.88138947542335     -2.45714645666718      0.45196620059096
  C   5.04379029702240     -1.40383252564866      0.13440255773894
  C   3.69707750590836     -1.34858388316378     -0.19058487520171
  Cl  2.75051414704909     -2.76972207865883     -0.23643036469049
  H   5.75315016111601      1.93215507646050     -0.12445592795193
  H   8.16030684162121     -3.47472333774905      0.95841422914676
  H   10.20464512477422     -2.34175144873588      1.42587276250835
  H   9.37820981728082     -0.79395479975065      1.29829349300739
