27
Coordinates from ORCA-job 25851optt
  C   4.83531403643456     -1.76946559037827     -1.27409885484180
  C   4.22554924118143     -0.59858092182777     -0.56870057017813
  C   4.92155190882106      0.55374298444359     -0.26103577498115
  C   4.30978549145732      1.61243605134752      0.40536387152710
  C   2.98089602455386      1.45860561434911      0.73074890505222
  Cl  2.13140883060943      2.73303911749790      1.53375121387832
  N   2.27597076951751      0.37111710919352      0.45211209423786
  C   2.88260123108589     -0.62279799128786     -0.16496411945046
  O   2.18947642922083     -1.73762273340711     -0.47926814388375
  C   1.02038263221305     -2.09423382882994      0.15185377936658
  C   -0.13076780390419     -1.40420728827435      0.38929964074029
  O   -0.40025110026570     -0.10476668282358      0.11721488215398
  C   -1.14340840643392     -2.23094791246381      0.97039453451121
  C   -2.48648109397108     -1.66597841358076      1.32783523742161
  O   -3.13715959323916     -1.07798061969441      0.21962165614054
  C   -0.72946487253236     -3.51179104743864      1.13230262296171
  S   0.89073952573176     -3.74799368714675      0.62723370554619
  H   5.87760989462624     -1.56822329831878     -1.51460531164312
  H   4.29742039160106     -1.99101400227649     -2.19650097076227
  H   4.78477469793012     -2.66523844738622     -0.65354634789590
  H   5.96592135636859      0.63003230153573     -0.53918475308911
  H   4.83901332028238      2.51857143084607      0.65689736475465
  H   0.43959850578520      0.38731097675151      0.21389427139060
  H   -2.36444691979710     -0.93132912151575      2.13220018677256
  H   -3.13704078915305     -2.45996833082334      1.69315692730326
  H   -2.56533152935479     -0.37510829918655     -0.11148050741251
  H   -1.29266217876897     -4.33760736930456      1.53650446037953
