23
Coordinates from ORCA-job 25855optt
  C   1.82502360522954     -0.56753358446987      0.50757920669211
  C   3.28012552185819     -0.93878293549695      0.41258083745856
  N   4.11610097520260      0.04202934806690      0.59070505879634
  C   5.45897687165827     -0.16901865650034      0.49735453707300
  Cl  6.41698604468384      1.25747377397818      0.63050351165609
  C   6.03529750386150     -1.37423368551425      0.27230219143884
  C   7.36922334574182     -1.82221386397423     -0.05844719077745
  C   7.28351130941644     -3.12080482498426     -0.46425657523698
  C   5.90771295959366     -3.56057714445079     -0.36030799023467
  C   5.15061313069765     -2.50349626666535      0.11400886780786
  C   3.70642505915890     -2.31833772039250      0.17655902649040
  C   2.70351716912147     -3.25895635673180      0.03587649069487
  O   2.79493732548427     -4.59307689871330      0.04823847377449
  C   4.15049477527267     -4.92417576248338      0.17336598066647
  C   5.00802834618378     -4.61535841912727     -0.81057375706491
  H   1.75782079471799      0.50104817803346      0.68714580112642
  H   1.32980151380920     -1.09618956224535      1.32302242689414
  H   1.29544588305988     -0.80098171256955     -0.41796633387940
  H   8.25624912161792     -1.21004977094011     -0.01799660717950
  H   8.10644089039191     -3.73333814482589     -0.80093051512885
  H   1.67091791261869     -2.95113965133047     -0.05228194772695
  H   4.43848031492366     -5.01419851726381      1.21295226214342
  H   4.68086962569613     -4.63608782139903     -1.84643375548429
