21
Coordinates from ORCA-job 2585optt
  Br  1.94699183431377     -1.39319022858628     -1.28114467947398
  C   3.70287338073222     -1.02784891299164     -0.76583930863499
  C   4.58693255509529     -1.95607339701968     -0.31104870134632
  C   5.87881079870197     -1.39500378081669     -0.08072616874363
  C   7.08189145552898     -1.89277049128215      0.29624099334039
  C   7.11445418956008     -3.35545444037108      0.29851392691252
  N   6.72414256507082     -3.86525336497994     -0.79525031177021
  C   5.82168590938161     -4.89868272510864     -0.84833555332085
  C   4.57594557019731     -4.62777762932545     -0.42733161926306
  C   4.11752900414651     -3.33096309242663      0.14522076957579
  N   3.22216185780102     -3.27075329820654      1.04436943560006
  C   7.97136417694991     -0.76962423916820      0.57804859585371
  O   9.08249986490561     -0.69164303173210      0.97454761923638
  O   7.23415857292392      0.41409562656394      0.25794623392641
  C   6.01501877859880      0.04266517390812     -0.14688654651957
  N   5.14360723365311      0.87360057198713     -0.55650668827971
  O   3.95333116628097      0.27081105818495     -0.95182098977355
  H   7.15691060599069     -3.91883675639562      1.23489423508291
  H   6.08198298375380     -5.82050287677074     -1.35478407983779
  H   3.80916297559058     -5.38831879271330     -0.50709130615153
  H   2.91654452082296     -4.20647537274944      1.31698414358701
