26
Coordinates from ORCA-job 25856optt
  C   4.02633986606756      0.12565766512179     -2.23334891348585
  C   3.66496670659145      0.22712315901030     -0.78600896843202
  C   3.38809910766898      1.31731432494883      0.00239605080708
  S   3.08584095848180      0.74030832656972      1.57421863837099
  N   3.32327490466414     -0.84617262082709      1.14476897841029
  N   3.61143911989812     -0.95589884862091     -0.08761909858210
  C   3.29036194576920      2.80028306221050     -0.25445994181402
  C   3.90925033895703      3.30375502901467     -1.54961314298064
  O   4.89876802461322      2.84839779583302     -2.04032082993101
  C   1.88824108829479      3.33452262043435     -0.03067761029437
  N   1.70592455313472      4.02565336479007      1.09087155581103
  C   0.48326315632402      4.49179113449447      1.34107867458083
  C   -0.59982494890550      4.30548448829551      0.50966060164472
  C   -0.43196463360187      3.58924403381832     -0.68004924382141
  N   -1.45275094920618      3.40418289200144     -1.55892954219490
  C   0.85804445440105      3.10529856037973     -0.93284908655934
  Cl  1.13774296721988      2.20066772136015     -2.38166659646127
  H   5.09093482022324      0.31083626759158     -2.37350032921613
  H   3.48862133526277      0.84210370017422     -2.84657949923017
  H   3.79652075201884     -0.88353537862522     -2.56934968578080
  H   3.88716723181749      3.30948674914195      0.51259062249868
  H   3.41618130924083      4.19806192424774     -1.97640592898862
  H   0.36669360329516      5.04655355040183      2.26485136804501
  H   -1.57011727617746      4.70961160063866      0.76729641934147
  H   -2.39055055107675      3.59453413447919     -1.25341453446374
  H   -1.34446788497656      2.73273474311510     -2.29993995727372
