28
Coordinates from ORCA-job 2586optt
  Br  1.08591893229941     -0.17157213002739     -0.09578402766162
  C   2.97206528583027     -0.15538953388261      0.01528805520603
  C   3.67727716969079     -1.30474186003670      0.34726022247057
  C   3.03564903201717     -2.63276086793414      0.65861880414360
  C   3.20137580439485     -3.61285081365754     -0.53344262173178
  C   4.55617529276844     -4.33458526467330     -0.53486863920336
  N   5.75700245843657     -3.51295706341937     -0.41573112876573
  C   5.80815523632768     -2.54302193141198      0.68186801103447
  C   5.21078295158382     -3.13407770165689      1.95752886863493
  C   3.70070335437933     -3.28634943176982      1.86608016727229
  O   3.06927930382624     -3.93137696127907      2.65783078623543
  C   5.07613737398396     -1.25357959921227      0.36368179186972
  C   5.74874076748059     -0.07541484263107      0.08145253987209
  C   5.03956280453841      1.07213396396120     -0.23040370155172
  C   3.64907470215577      1.03831547509502     -0.26858625316416
  C   2.94157103804630      2.24092673427180     -0.60026295071939
  N   2.41300291575870      3.22285781014350     -0.86887319241941
  H   1.98117376771996     -2.51416516021677      0.88990405845492
  H   3.05401340429487     -3.05807775625826     -1.46251344179166
  H   2.41558085302128     -4.36744310055453     -0.46774253343444
  H   4.65265993147177     -4.91783732014773     -1.45035946281507
  H   4.56409750581600     -5.06083528346733      0.28236770097880
  H   5.96572269441895     -3.05000142303955     -1.29156977252353
  H   6.85957213886524     -2.30810828591499      0.85918058799902
  H   5.42179402751215     -2.46844979434776      2.79787165654343
  H   5.64219992838212     -4.10722313012193      2.19398818238890
  H   6.83139243152270     -0.05357764919664      0.10689471567634
  H   5.54731889345664      2.00116292138612     -0.45067842299865
