25
Coordinates from ORCA-job 25866optt
  C   3.68920699559669      0.39214289010815     -0.96563233148312
  C   2.52360192413385      0.24337260604205      0.01614434279906
  C   3.01594471085840      0.11742665930749      1.42946761067726
  C   3.23743623599667      1.21222468498795      2.25314850673677
  Cl  2.92833180100144      2.81337238623611      1.66289846528025
  C   3.71387585912076      1.08343404018616      3.55336854697475
  C   3.98996741069391     -0.17906531814687      4.04049949626380
  C   4.50459882872160     -0.33917501437788      5.42125133434342
  O   4.79822208344526     -1.39900583462454      5.90538590253758
  C   3.79899975162677     -1.30885452675863      3.24749439501504
  C   3.32321983257156     -1.15118861089440      1.96037992268006
  O   3.11511671543445     -2.19204768461982      1.10453736855727
  C   3.38327961584711     -3.48419025239267      1.58799686263399
  C   3.09315764682035     -4.43439386932837      0.51105364428686
  N   2.87543379803081     -5.19767941056566     -0.31280214682705
  H   3.31742639631026      0.50094403980223     -1.98415314565134
  H   4.33482184557177     -0.48572974693654     -0.92987515845736
  H   4.28807659211902      1.27067138635584     -0.72277580615452
  H   1.94086539667628     -0.64034164951975     -0.23813824728309
  H   1.86563731594936      1.10796141264623     -0.05691546819196
  H   3.86861677967960      1.96300966291638      4.16501203184740
  H   4.60641563517350      0.59982374118263      5.99650924071280
  H   4.03661345836909     -2.27166046837778      3.67783684009947
  H   2.75618247911593     -3.72472945213750      2.45201080470920
  H   4.43295089113549     -3.59032167109079      1.87829698789345
