26
Coordinates from ORCA-job 25868optt
  Cl  1.69738223125926      0.33810846833018     -2.73530479299269
  C   2.98361808990258      0.25526360603734     -1.58004618920194
  C   3.23916023559594      1.34497444227950     -0.76504138655710
  N   4.21576500454983      1.33047274472468      0.14999727329764
  C   4.90431369589570      0.21097636325857      0.20595613804791
  N   5.92989209418837     -0.06189678678837      1.07795289340253
  C   6.52026408649419     -1.36526285484927      0.78979576379053
  C   5.63524787024237     -1.98170817365050     -0.35619062645576
  C   5.11328730043398     -3.22154252771316      0.38706623354085
  C   6.42150061450921     -3.74321009068915      1.03228256499518
  C   6.29179022671375     -2.45191469625120      1.86487548231283
  C   4.75532147911753     -2.66321562533076      1.78330827509845
  C   6.97794604932204     -2.26827382215116      3.17265557043366
  O   7.76788156794964     -3.04931084483516      3.63068972479922
  C   4.65424508266899     -0.88683318125556     -0.63932929500265
  N   3.69619557591200     -0.86788710194375     -1.53268027628972
  H   2.64714415081800      2.24663134515168     -0.85077999846963
  H   6.47188927187351      0.69502158230033      1.46075947209467
  H   7.57654270474595     -1.27689137179668      0.53279902583439
  H   6.19987037458366     -2.25882636468972     -1.24653463390433
  H   4.43416550779810     -3.86728076695879     -0.16161039310926
  H   7.30005610665031     -3.85058137952913      0.39557065952508
  H   6.27655928649775     -4.63003744347651      1.64466105258629
  H   4.11016581515463     -1.78870201812582      1.85663193337244
  H   4.42515260252046     -3.44594281706091      2.46300887453546
  H   6.71164297460217     -1.34613068498666      3.72750665431595
