26
Coordinates from ORCA-job 25875optt
  C   0.92549190308701     -0.23485115409428     -0.08214161100464
  C   2.44330537751479     -0.04637538818919      0.04504715659770
  C   2.78789256075646      0.01300037991208      1.47095984127984
  N   3.00664362062107     -0.03367629735517      2.59430482674260
  C   3.19924915678448     -1.30743648404246     -0.55773324574886
  N   2.73386495253539     -1.77511083105513     -1.84307877153594
  C   4.63518515183539     -1.01632708773561     -0.61193883028362
  C   5.79511625568030     -0.72535339465944     -0.64996926920309
  C   2.87815176242517      1.22698178737209     -0.65744669008837
  N   3.47796267587985      2.17879939918678      0.04055085128011
  C   3.84915988975920      3.25743232738015     -0.60207619881631
  Cl  4.62768663211897      4.50496533518109      0.30537442348353
  C   3.65817315850112      3.46133395471724     -1.97423918897207
  N   4.00427584826359      4.60877297726809     -2.62384001987600
  C   3.01710238987047      2.38087884803205     -2.59086096001233
  Cl  2.70998568861758      2.47268208971362     -4.29045488632392
  N   2.63065833861633      1.29835624745628     -1.96186287777837
  H   0.62703304668276     -1.19000859464450      0.35190925565820
  H   0.64468876781084     -0.20525288023622     -1.13314678615501
  H   0.40285924915604      0.56213468030254      0.44487804464739
  H   3.03977977153753     -2.11155236123378      0.16554095480720
  H   2.77148700970636     -1.03465315980024     -2.53428019299708
  H   1.78248566535571     -2.11450341271166     -1.78566244762928
  H   6.83064529561517     -0.48264664082834     -0.67347597246772
  H   4.65495194614983      5.21994421344175     -2.15822353571773
  H   4.06216388511856      4.57246544662225     -3.62813386988624
