29
Coordinates from ORCA-job 25884optt
  C   2.72132658391541     -0.67517246684196     -1.37283701272567
  C   2.59448672059101     -0.10211258891813      0.04100397706103
  C   2.93082769344989      1.38877368600986      0.11558348711217
  C   1.14503056446194     -0.28710615601148      0.50415931109869
  N   3.39197615790446     -0.88125936320269      0.98718200070584
  C   4.63314714229570     -1.06735883037695      1.14109621849091
  C   5.88197665421412     -0.63138736120742      0.50990038947097
  Cl  6.00027641218913      0.30392438420287     -0.93312760571496
  C   7.04602700786508     -0.98230720039535      1.07694014225395
  O   7.19201503631949     -1.73232119715064      2.17161869496438
  N   6.08615048848922     -2.27472698512610      2.77370005101569
  C   4.94906583397778     -1.97133399296416      2.29075389488948
  C   3.76256479934277     -2.57995833853252      2.99890307795654
  C   2.83983953402147     -1.45755373967685      3.51668050321554
  O   3.27419702388068     -0.55700167989688      4.16641697027709
  C   3.01689379996515     -3.49382996122214      2.13345752652975
  N   2.39353048269602     -4.20501738984813      1.48719147826653
  H   2.02147185547612     -0.16132770446016     -2.03382256736094
  H   2.46604872074140     -1.73606221664669     -1.36171962261588
  H   3.72290864099430     -0.56080279413157     -1.77738234546993
  H   2.20866145860977      1.94965754418396     -0.47994965674223
  H   3.92607390258728      1.61237856045605     -0.25591518584844
  H   2.85758616712459      1.72993432921921      1.14962476245358
  H   0.46047340218690      0.23077426022700     -0.16894224172583
  H   1.01602913965273      0.12132524330656      1.50817187753038
  H   0.88893835725301     -1.34752647621389      0.52171334189850
  H   8.00460569623593     -0.67541981095327      0.68160604187045
  H   4.13541902435086     -3.13145725561316      3.86490377694245
  H   1.76945169920772     -1.57872449821534      3.28708871419993
