32
Coordinates from ORCA-job 25888optt
  C   1.18881153891864      0.84511060777062      1.10775128091598
  C   2.18845850096790      0.12202020734723      0.21116368232565
  C   3.27295354454111      1.04673531816553     -0.34515973511745
  O   3.93676021807148      1.83783752337519      0.62527138901600
  N   2.71518403838098     -1.09205245701824      0.83677734130731
  C   2.52193674651273     -2.36428577573479      0.27606815024505
  C   1.90025260088552     -2.58488537397790     -1.05763645860886
  C   3.02941649296390     -3.27564398593253      1.16374173071615
  C   3.12909173415100     -4.69533488502795      1.17874057059412
  C   3.73006696893193     -5.28300262626994      2.25252522924096
  N   3.93145410425525     -6.65359020947404      2.35916400440384
  N   4.24518937768787     -4.57790186856165      3.31816080907171
  C   4.15905730027096     -3.29817000101500      3.30887199765345
  Cl  4.84321749599218     -2.46826175531797      4.69488394921473
  C   3.56366423074820     -2.54063068099353      2.28176841726339
  C   3.35191480810522     -1.18352484259673      2.03271980293149
  N   3.63997497357603     -0.07517145172973      2.80948654320282
  H   0.77318623929805      1.70455687768388      0.57739274453290
  H   1.64829828511414      1.18086235166091      2.03549681192835
  H   0.36970785659928      0.17466529657454      1.36539567590713
  H   1.64912132142217     -0.23286801727581     -0.66629548380961
  H   2.81246444141026      1.69180510064458     -1.10034762448176
  H   4.04354570568893      0.44929341898335     -0.83192318914078
  H   3.33762887758818      2.52624450861477      0.93130471516893
  H   2.43242645549074     -2.07196329047560     -1.86451142762584
  H   0.85010460188190     -2.27998802669447     -1.10340657962936
  H   1.93476853105663     -3.65097591313133     -1.27784962654005
  H   2.75028139122941     -5.30058626862424      0.36555856685118
  H   3.27858343534361     -7.23082010484551      1.85464961980106
  H   4.08849177928269     -6.95657508910966      3.30797661121415
  H   4.17648716071164     -0.31750594754670      3.62885701839082
  H   4.05149924292140      0.68960736053277      2.28740346305655
