28
Coordinates from ORCA-job 25887optt
  C   5.16122368480180      1.98658466278779      1.22934353418387
  C   4.21859625035738      0.84067868932947      1.03719313342303
  C   2.86580638633729      1.01211690303611      0.67931633386261
  O   2.45054590991650      2.26498769843944      0.51275917738776
  C   1.08116280175931      2.58997761479668      0.10961065788032
  C   0.86342580807388      2.16136155271667     -1.32959112149580
  C   0.98962722020585      4.10976970953243      0.31169580052723
  C   0.45478902231969      4.30823181294595      1.73762457382297
  C   -0.24493209591681      3.00154004353147      2.00060632712365
  C   0.07935495663919      2.06663297900698      1.11641572295290
  N   2.03593200585665     -0.00639915796294      0.51153364590098
  C   2.53667766469851     -1.22225157148314      0.69876416576365
  N   3.77901046911333     -1.52213419642385      1.02927635422703
  C   4.58519224622537     -0.48296878248707      1.18644646310296
  Cl  6.22724791180763     -0.84953575989443      1.60809919446337
  H   4.64603980595527      2.93265092114401      1.09387876111055
  H   5.98589056460638      1.92558735513027      0.51745644731553
  H   5.59781599856297      1.95705017465987      2.22846229628927
  H   1.59521977947311      2.64825053901149     -1.97657703028732
  H   -0.13498475173411      2.46361659216714     -1.64606988524289
  H   0.95074816010062      1.08279892448480     -1.43681737380697
  H   0.26776917389428      4.50474649547559     -0.40409666658817
  H   1.95164793158335      4.58391400400798      0.12330295456203
  H   -0.21325563698763      5.16672150616695      1.81620279326653
  H   1.25971295157007      4.46249819176859      2.46167215874545
  H   -0.91941397722114      2.85307982360930      2.83433671137750
  H   -0.27189011730263      1.04641299184535      1.10305198487001
  H   1.85303987530386     -2.05291971734293      0.56410288526192
