26
Coordinates from ORCA-job 25882optt
  C   1.50694483200918      1.90536214236524      1.95334184048799
  N   1.82063592961999      1.48603578896102      0.59879249924804
  C   2.98476769486979      1.90564736935210     -0.07512248167474
  C   3.37693296459226      3.17417112169094     -0.25179030751251
  O   2.78640319966739      4.35098078001939      0.16983139479918
  C   1.50624239654332      4.74276333029609     -0.09862646840170
  O   1.24422393518840      5.89556326542507     -0.23251447217651
  N   0.58361895085507      3.71231171263076      0.02833541883312
  C   -0.16156101986805      3.23827035611762     -0.86606245381388
  C   -1.01518809228869      2.05566343232384     -0.56061699969181
  C   -2.48399035028320      2.21699939985243     -0.80780528175849
  C   -0.45384569232771      0.90052634221554     -0.18867718442552
  C   1.02339013827723      0.72504106472992     -0.19973670033932
  N   1.52756840210134     -0.04707660911911     -1.11277173715439
  C   2.90515972576478     -0.05032797646360     -1.13752293747934
  Cl  3.60061044577515     -1.43796900569254     -1.89169919778137
  N   3.67582137835666      0.86946425013044     -0.71355067362051
  H   1.84784885387180      2.92416382142976      2.11704974065197
  H   1.99668008246358      1.23793264636098      2.66437405237375
  H   0.43016050699841      1.87260423615127      2.10000052795449
  H   4.32899706603761      3.34783024053229     -0.73171444213776
  H   -0.19416630805309      3.63369015025919     -1.88738003574189
  H   -3.01153762473366      1.27529966812520     -0.67171267008676
  H   -2.66141543384944      2.57356090510208     -1.82514419835915
  H   -2.90401264497755      2.96123564815576     -0.12811160304325
  H   -1.06028933661059      0.00925591904828     -0.08316562914962
