24
Coordinates from ORCA-job 25883optt
  C   1.08399268138128      0.06472822802392     -0.07598728791101
  C   2.57050090704862      0.09204837164032     -0.08191365830092
  N   3.26984667185881      1.21023663069565     -0.05597888545653
  C   4.56223467367182      0.75148152019565     -0.07033859996528
  C   5.73963427163301      1.41709332980377     -0.06652268857215
  C   5.91294665935923      2.89963312690783     -0.09868982189969
  N   5.96278445530385      3.35324875956970     -1.47921409725478
  C   4.86739759696358      3.78352854645144     -1.95418898629078
  N   4.76106244484880      4.26131921170806     -3.22316394290833
  O   6.88549295445824      0.70557090201833     -0.09256774246270
  C   6.87872142481236     -0.63044269475972     -0.12969631280689
  Cl  8.46212371032952     -1.26914123913091     -0.15692057583976
  C   5.76282263655536     -1.39131608611967     -0.14010240060323
  C   4.53151949239459     -0.69009290895611     -0.10989719479892
  N   3.28231378961901     -1.09596466733810     -0.11506194256671
  H   0.68682391284762      1.07348443851768     -0.00255013013792
  H   0.72955840662401     -0.53448735955618      0.76349315874400
  H   0.71779416564643     -0.40984414626949     -0.98757572730380
  H   6.84422771971753      3.16193136209838      0.40391059476454
  H   5.07441284569092      3.33134957157295      0.45778626568963
  H   3.93932593119121      3.82342416758443     -1.37557236761357
  H   5.53436533429805      4.09123192914970     -3.84593231627702
  H   3.84961810003642      4.34766266920052     -3.63475928077311
  H   5.83247921370961     -2.46768366300816     -0.17255605945504
