29
Coordinates from ORCA-job 25881optt
  C   1.08135749844147      0.38214029456622      0.11271948560526
  C   2.58037495093727      0.28763936417939      0.01948783970705
  C   3.42067047178916      1.40242795647488     -0.00925542889743
  Cl  2.74052216030857      3.00799377223901      0.03764251862882
  N   4.73361503401943      1.38346062952224     -0.06873137978395
  C   5.34553381188051      0.20407623142929     -0.11743290181115
  N   6.71593472697996      0.22914738938189     -0.22159439962465
  C   4.62484743994585     -0.99082704679196     -0.11133189169928
  C   3.24268922675789     -0.94888798234741     -0.04694620320063
  C   2.47291609758822     -2.26546809551799     -0.06810565242066
  N   2.67751564394192     -3.05577465694615     -1.27982240463676
  C   2.83288703629287     -3.13917042931919      1.13273977012410
  C   2.50502139138902     -2.46499956928332      2.46298489418841
  O   1.13241185751102     -2.17570854434722      2.60155324130275
  C   2.98844856061443     -3.31216636924087      3.57371962839267
  N   3.35664075131785     -4.01436963847744      4.40051988456971
  H   0.76069532564173      1.41279388834580      0.22294906200733
  H   0.70923414716720     -0.18283750681535      0.96877782464680
  H   0.60478863663037     -0.01933615245605     -0.78444437241042
  H   7.13936485788193      1.11491426655990      0.00536067145763
  H   7.22285668096146     -0.58300893926291      0.08600235228958
  H   5.15433072519048     -1.93466666893536     -0.17124137099959
  H   1.40748439700052     -2.05122418414807     -0.01033481466702
  H   3.66109506218599     -3.26720508443709     -1.41062554762678
  H   2.38062326245060     -2.53492746109278     -2.09721553551693
  H   3.89791782303497     -3.38621712556296      1.11502335234352
  H   2.28241222963430     -4.08014614111219      1.05924105970909
  H   3.01808463719759     -1.50269986422154      2.52936787339939
  H   0.63372555530732     -3.00095233238274      2.62099244492314
