33
Coordinates from ORCA-job 25893optt
  C   3.05200466555379      2.77453574957219      2.53047108679844
  C   2.48400147895511      1.53267726318055      1.85059244059270
  N   1.02377917110430      1.54706084108085      1.75037781150074
  C   3.05001567198188      1.30904030127971      0.42182034779876
  N   2.62292770738864      2.28162971263707     -0.56420504912897
  C   4.55817247888167      1.25504928151907      0.46579185289004
  N   5.20966198735081      2.37443673556427      0.14675180446878
  C   6.52108329418084      2.39859815153361      0.21376613501743
  O   7.13363969007545      3.55133798572835     -0.13391247891511
  C   7.31259483728854      1.32175967626431      0.62328147120201
  C   8.79836638324995      1.47236004187121      0.73397995491188
  N   9.44314229617199      1.75805883657069     -0.44303961161440
  N   9.46088919068826      1.29766420805246      1.80543390772446
  C   6.66041695599607      0.13304078843583      0.94127182405263
  C   7.40483184868576     -1.11122374824525      1.32628954939114
  C   5.26224491518647      0.12666133276734      0.86571675512568
  Cl  4.40426125977534     -1.32643343407901      1.27124047149376
  H   2.58276143925196      2.91194436590395      3.50551431468572
  H   2.85079464496421      3.66678335055729      1.93183989379479
  H   4.13055565055774      2.70534460334940      2.67663032335955
  H   2.75347320884079      0.65176458843493      2.43808592334094
  H   0.69969593451672      2.47686598036876      1.50496365575549
  H   0.60519280003712      1.32601489211160      2.64553359137860
  H   2.67485648590732      0.33676238777933      0.10061259776138
  H   3.02738022847201      3.19276966691232     -0.39031766882902
  H   1.61335109089824      2.34352272203191     -0.58406163412412
  H   6.43746051701926      4.17487756579528     -0.38001695084327
  H   8.92093644492529      2.26857078056281     -1.13629081022568
  H   10.40280863534916      2.04882120177558     -0.32884716534324
  H   8.84672471240363      1.04584836962223      2.57414384882903
  H   8.47477054358095     -0.99907990650570      1.17891328040724
  H   7.04197582113977     -1.95473122580016      0.73921032036520
  H   7.21822800962086     -1.35533306663281      2.37445820637738
