28
Coordinates from ORCA-job 2589optt
  Br  1.07237749060027     -0.24150490194658      0.25846667793763
  C   2.92169946869258     -0.17893933914415     -0.00875044979311
  C   3.57876203441304      0.91829814004452     -0.38367469071439
  C   3.01988156638723      2.27786895429123     -0.68631571076937
  C   3.55854308764164      2.65362687747475     -2.06212490422397
  C   5.08320044647874      2.82733405353231     -1.96599568892623
  N   5.71255380382748      1.97896196150958     -0.94935040628382
  C   6.51841319912589      2.64413848334582      0.06968963083115
  C   5.70900967770742      3.59997545609409      0.98768662061267
  C   4.34663030042689      3.00526748863659      1.23748781415438
  N   3.96674874504218      2.27135873730037      2.18318203700811
  O   3.49099060351848      3.29891376489764      0.21150010144716
  C   5.02886911623360      0.82854871575672     -0.54491786292484
  N   5.72351985499126     -0.20662272942767     -0.25918145950699
  O   5.04006881652368     -1.30329685694133      0.22668837880187
  C   3.67217437879766     -1.41067078514254      0.26581934313019
  N   3.12353522209883     -2.50096334109986      0.56915015180076
  H   1.93378304601425      2.26838470590108     -0.64653799938819
  H   3.10770846580646      3.58518609745724     -2.40396130768629
  H   3.28640626654186      1.87111621177366     -2.77298590302888
  H   5.30013110590164      3.86261986995321     -1.70488862589630
  H   5.53903252274734      2.63579650239993     -2.94018312721889
  H   7.32418968584545      3.19594671630941     -0.41642391440513
  H   6.97687436712996      1.86182638154859      0.67151458857741
  H   5.57729047432691      4.57369449071976      0.51503835593275
  H   6.25040312277524      3.74504722510787      1.92218999163088
  H   4.71050207222768      2.14761142460440      2.86692957031020
  H   3.82070105817627     -3.22452430495666      0.73694878859124
