36
Coordinates from ORCA-job 25919optt
  C   1.49882586615950     -0.01937102893019     -0.61013978896448
  C   3.00003509369311      0.22264568097878     -0.71012838214818
  C   3.45002063186901      1.37871180368013      0.17392786078381
  C   4.97282520930057      1.57597657576505      0.20735179483986
  C   5.54592596602539      1.91405504766116     -1.16776924847087
  C   5.29547793922081      2.65235814139053      1.21787843187386
  N   5.15456070302575      3.90447417967090      0.78448898212754
  C   5.39450032015699      4.94005265532207      1.57888846830150
  N   5.25716418659644      6.18819721738077      1.04533830108463
  C   5.81459348098245      4.74357472274052      2.90393345741832
  Cl  6.11975287510228      6.10567940085161      3.92881989297849
  C   5.96673717437651      3.46093007374333      3.36723413891289
  C   5.69860684171426      2.37697530790736      2.53104037611579
  C   5.83668738159678      1.00312424688320      3.08677601441119
  N   6.98509819494688      0.81060234260336      3.83363738012146
  N   4.91725575830287      0.13995529131640      2.92374418244099
  C   5.12073607070932     -1.16860874713434      3.50785748873381
  H   1.18019301806279     -0.84238777746552     -1.25086300011092
  H   0.94210514625114      0.87195790416918     -0.90683568837313
  H   1.21456761098440     -0.25991257742089      0.41591310605362
  H   3.26630923973645      0.41945830950595     -1.75139869704869
  H   3.54048682172555     -0.68193404421527     -0.41279534524661
  H   3.10998653080568      1.19635943442692      1.19654062893142
  H   2.98678846079913      2.31127170831868     -0.16708904155949
  H   5.41205302799254      0.64188910050942      0.55808986611540
  H   5.03805098935253      2.77733355344152     -1.59719488302953
  H   5.43281883084289      1.06831635067514     -1.84578854643367
  H   6.60866561933060      2.15215630265043     -1.10051465775033
  H   4.76842770838694      6.23444227975979      0.16710450589478
  H   5.17615536759068      6.97421228970187      1.66677444932280
  H   6.27388750490546      3.29623478799391      4.39270504825086
  H   7.77169361686068      1.40593099891955      3.63566360451596
  H   7.21774117025427     -0.12801500490716      4.11166036421493
  H   4.27563934655116     -1.80814037315441      3.26316288620307
  H   5.20072481589427     -1.12026667851191      4.60077700698145
  H   6.02890147989381     -1.65523947622787      3.12620904250743
