25
Coordinates from ORCA-job 2591optt
  Br  1.04555881161397     -0.62858279300951     -0.96689598747881
  C   2.86336289883604     -0.48481908490611     -0.55295862194373
  C   3.60393404400152     -1.47610153541882     -0.02526103093737
  C   3.39095768713430     -2.86562521355974      0.50577259094994
  C   4.76441545398381     -3.48735971029332      0.14448720413274
  C   4.96870510944562     -4.83210157653860      0.66938782614459
  N   5.14060644710702     -5.88206279470072      1.09439655527396
  C   5.57085945123975     -2.38857340014501      0.89741049095153
  C   4.93622490354521     -2.49700170663981      2.30404913886505
  N   3.53269937908695     -2.78556642587944      1.96851029156364
  C   2.47057116967207     -2.43679635068032      2.73761264110003
  O   1.33795046464778     -2.35878116645154      2.32539109245908
  C   4.97943598897142     -1.15437693389568      0.24925431537335
  N   5.57788830359475     -0.04119855710141      0.03627925454844
  C   4.81867827976934      0.98404527933635     -0.53977950151611
  N   5.23339207642197      2.14087961168884     -0.83987655578954
  N   3.45983456429329      0.69919410168619     -0.81077718691052
  H   2.49210429573179     -3.39440611313734      0.20974435040982
  H   4.94714958512396     -3.47640928395304     -0.92865723528460
  H   6.65345209141569     -2.45228709969820      0.87816563805597
  H   5.03910344114364     -1.56901815572840      2.86614627933221
  H   5.38682945786344     -3.31774477638825      2.86389374482954
  H   2.74167666153844     -2.24376546621342      3.78811107600982
  H   6.21582570524678      2.22415315349030     -0.59695298520739
  H   2.93578372857138      1.46030599813703     -1.21845338493166
