19
Coordinates from ORCA-job 25911optt
  Cl  3.70505871146970      0.47930497651534      2.42129674201800
  C   3.70820528425727      0.18476577508120      0.74527196252333
  C   3.20319526092991      1.03180315056064     -0.16171587188353
  C   2.58516752458529      2.36767330839978      0.12104398672615
  C   1.09393389977657      2.31121704263840      0.07528567138593
  N   0.36344781421385      2.53248767422139      1.10410391242588
  O   -0.95872373762105      2.38412944677119      0.65316516548671
  C   -0.97288642765556      2.06710916563381     -0.67680322198893
  N   -1.96406023480434      1.86306605673351     -1.41941154390822
  N   0.36111377287105      2.01828395187896     -1.03478535464940
  C   3.24601382742546      0.58719772571065     -1.55211735106582
  O   2.76515785876485      1.18411897117903     -2.47395879421325
  O   3.88245999192479     -0.59158452366844     -1.78489879373940
  N   4.39687114175555     -1.39911035262818     -0.76505076610212
  N   4.29770677203606     -1.03191763127041      0.39690904487928
  H   2.93728185303623      3.07565473873681     -0.63226454583868
  H   2.86879866407714      2.71971776883102      1.10978402525504
  H   -2.83621697382125      1.96329565370098     -0.91099854935668
  H   0.71847499677848      1.82378710097431     -1.95785571795429
