23
Coordinates from ORCA-job 25917optt
  Cl  1.06854907840916     -0.34575351568311     -0.05767857302998
  C   2.77719130383111     -0.12504902558232     -0.05833190790477
  C   3.59258198865280     -1.22371690222867     -0.05719514220596
  N   4.93255921887396     -1.05716797069478     -0.05768003019941
  C   5.48619809869472      0.16782218860482     -0.05932119643392
  C   6.84969036182629      0.42399337287907     -0.06021310843949
  C   7.13001114252102      1.79932722076704     -0.06219381849794
  S   5.65922152379433      2.76394082199016     -0.06284285007862
  C   4.66841411705132      1.32870039712126     -0.06057683977323
  C   3.30713807983724      1.18478644603246     -0.06003181946544
  C   8.43608394787813      2.23124608249413     -0.06336335314154
  N   9.44164476546598      1.30173101857479     -0.06257260011711
  C   9.20401475420706      0.02752498815686     -0.06074797709314
  C   7.87571797374877     -0.56763675741271     -0.05930099064883
  N   7.54519196364595     -1.82967746356899     -0.05735344319846
  C   8.76232065087834      3.61869838999026     -0.06523122389663
  C   8.96932248453780      4.80138324353517     -0.06693657090131
  H   3.21418937323342     -2.23411578305712     -0.05590015656555
  H   5.64533861812437     -1.81734946558440     -0.05701462270403
  H   2.63496863847964      2.03234493555647     -0.06089930606941
  H   10.06558821647766     -0.63624405043790     -0.06027946104361
  H   8.36216441672738     -2.43383592430184     -0.05689546294436
  H   9.17289928310348      5.84504775284933     -0.06843954564729
