29
Coordinates from ORCA-job 25928optt
  C   0.84587229571089     -0.33829113424588      0.50098165247420
  C   2.34510592262891     -0.31929366902812      0.24480316077223
  C   2.88293741919478     -1.69951229309844     -0.19318176949361
  C   2.26186329784455     -2.13299180924241     -1.43994938604904
  C   1.74028637407482     -2.47503805343333     -2.46464147468172
  S   1.07813946446840     -2.90099172212971     -3.99137503934471
  N   2.02023272505721     -2.13407272261844     -5.07636717827291
  O   1.29322281001005     -4.29482247843965     -4.17309102682073
  O   -0.21564421936289     -2.31363713840646     -4.07287382446778
  C   4.39156994492513     -1.64164067623189     -0.30825960514653
  N   4.90671147560514     -1.25059032591798     -1.47526012559733
  C   6.21599641837701     -1.16565111339132     -1.52161210382488
  Cl  6.92102777027688     -0.66786822694029     -3.02016457151132
  C   7.04287977252352     -1.45126349271778     -0.44717389481124
  C   6.40876072095099     -1.83724214572134      0.72449474372533
  C   7.17057608302180     -2.17590163071930      1.96630990664337
  N   5.07605611910216     -1.93020157323556      0.78674014363961
  H   0.49890969896982      0.64193890456172      0.82595109295711
  H   0.59573316052399     -1.06067161539562      1.27988463058420
  H   0.29753585460776     -0.61171345249789     -0.40100180208783
  H   2.88633112691827     -0.03568157159054      1.14949428133874
  H   2.59682917136776      0.40551132985998     -0.53233392791786
  H   2.64738718146516     -2.42574399799415      0.58822932309292
  H   2.97306874696043     -2.47572330208030     -5.09453370598852
  H   1.94656446332333     -1.12556086023669     -5.03635497561381
  H   8.11680807946592     -1.37477200515067     -0.52469568934679
  H   8.24165276686855     -2.04328046892382      1.83128800334455
  H   6.96772344290176     -3.21054618447158      2.24474685381475
  H   6.82786191221755     -1.54674657056238      2.78794630858967
