28
Coordinates from ORCA-job 25920optt
  C   1.44423783702841     -0.64583980701068      0.42353425073206
  C   2.41084213706606      0.50182798744133      0.28600149851466
  O   2.69307029167888      1.20248899302249      1.22446930381929
  C   3.00216462207110      0.85301057916533     -1.05885329632537
  C   3.48217015882687     -0.03532149794746     -1.95536519392000
  Cl  3.48625331877813     -1.73522526313653     -1.66955486425611
  C   4.08786684717604      0.37268966749078     -3.24116766076363
  N   4.57037639294453     -0.34788187293640     -4.15170592507212
  O   4.12039020405322      1.72958355150304     -3.46935388825320
  C   3.64465975899958      2.59168758429019     -2.56410567239679
  C   3.10387351180614      2.24929277929207     -1.38868419063135
  C   2.72902796291612      3.48330550769765     -0.61598219884027
  C   2.78724419076299      4.60137159054698     -1.69031146289196
  C   3.22017363997631      5.94512799576682     -1.13340909424537
  O   1.51894006732552      4.71631077057161     -2.32811971767386
  C   3.71987956292409      4.06080763972101     -2.79321216690692
  H   1.98392986679408     -1.52818957520955      0.76910925868701
  H   0.95953345434611     -0.89266035823564     -0.51885370527962
  H   0.71020668068154     -0.37426410207546      1.17969285090930
  H   4.51137713641442     -1.33191691715640     -3.91257189894653
  H   3.43442174829852      3.66377965604482      0.19780920706057
  H   1.73351694529642      3.43348266941981     -0.16918259553115
  H   2.52016167681879      6.27986242825492     -0.36401860341315
  H   3.24007053829048      6.69014264460977     -1.92912446584480
  H   4.21091611945613      5.88064065497067     -0.68287476724009
  H   0.86632549517457      4.99099254471839     -1.67579391369087
  H   4.74742910327376      4.41441013242189     -2.67245464900651
  H   3.36594073082116      4.35948401675853     -3.77991643859321
