26
Coordinates from ORCA-job 25923optt
  C   4.19414427288461     -0.28923951546835     -1.01582904245860
  C   3.63742764155106     -0.66300524610416      0.32694273832308
  O   2.36649587689402     -0.04919102148756      0.58693773223841
  C   2.17415562580269     -0.57972624279448      1.90059732458560
  C   3.50367090334231     -0.19093484220721      2.56895945157280
  C   3.63718989124715      0.03680594231728      4.03351072540995
  N   2.67099564573581      1.03828674637631      4.47769260619910
  C   4.40384376605907     -0.24191639551156      1.59560951568245
  C   2.30192078230849     -2.06964639982878      1.59104304836715
  C   3.24329830288276     -2.13124410814795      0.56650866634176
  C   3.61225816920752     -3.34135507688780      0.03609963459004
  C   2.98838640272426     -4.47055464608405      0.58409738366385
  N   2.10487689977820     -4.42857181686575      1.56990260406644
  C   1.78059826721178     -3.24211705544334      2.06928049759452
  Cl  0.64584918507186     -3.21635578820750      3.38411940286511
  H   4.34002260495492      0.78878863517777     -1.07126158508603
  H   3.50866225194953     -0.59525563171866     -1.80555998170890
  H   5.15530805187108     -0.78019738278282     -1.17422084056524
  H   1.26006757496786     -0.22883184059620      2.36522697917353
  H   4.68059969744876      0.27515425385805      4.26918396694183
  H   3.39535863961025     -0.90090522761946      4.54543669750657
  H   2.90716680914869      1.95141020340799      4.10833638071245
  H   2.65747623342880      1.10800358720604      5.48696355532717
  H   5.47445200897346     -0.10810823421676      1.65329321413238
  H   4.33446996834817     -3.44288459485361     -0.76305928920962
  H   3.22030452659686     -5.45840830151746      0.20218861373419
