18
Coordinates from ORCA-job 25924optt
  Cl  1.81411536711811      2.12851658840740      0.24346875993519
  C   3.39323115801445      1.48971587504627      0.36344111465367
  N   3.44848316951122      0.24622370545620      0.61349148039830
  O   4.70200489104453     -0.38652792065201      0.75304530750501
  C   5.71843226879784      0.34062703373045      0.25149002214331
  C   5.66899951842450      1.62615431319805     -0.04489861184509
  N   4.47131756555368      2.38280824730313      0.14855002695453
  N   4.10790355125973      3.74307278486984      0.10981638395983
  N   4.92758304421081      4.67129387795148      0.05339778304383
  C   6.26294486939770      4.16481647909691      0.09090206015232
  C   6.75108189320939      3.51606002464451     -0.95987470098297
  C   6.97454403003320      2.09566460689094     -0.61057702388857
  C   7.83901744387736      1.08640933307848     -0.63369956115810
  C   7.11256710970763     -0.14185377433430     -0.10012727137777
  O   7.54528245805919     -1.24741020618139      0.01379189746927
  H   6.59432126083657      3.93383277908742      1.10168365325473
  H   6.31972366649910      3.70239110253717     -1.94023832567734
  H   8.86744673444494      1.06720514986942     -0.95466299454013
