24
Coordinates from ORCA-job 2593optt
  Br  1.35610883012287      0.15842833462215      0.70651867663236
  C   3.18098057440649     -0.08831300767628      0.28644162577080
  C   3.68712897658582     -1.34660354685055      0.00814489151763
  C   2.95908912124269     -2.60313143200757     -0.04089380123383
  C   3.62993457200971     -3.79274823789660     -0.15870944707651
  C   5.11659107062915     -3.87680855946434     -0.17000173401045
  N   5.67121754860869     -2.60726181611293     -0.62529497192617
  C   7.09191219527717     -2.60783155601348     -0.85307655862374
  C   7.90611509068920     -2.49108583435479      0.42066643939925
  O   7.42734460144202     -2.48864777204097      1.51719720277136
  C   5.08237932853232     -1.40924344736880     -0.29455206027857
  N   5.85657983701218     -0.33186860356497     -0.33718780658201
  C   5.31760006709601      0.85369771248584     -0.06984575378124
  C   3.99104978393106      1.03991141322944      0.25819094143255
  N   2.84352541625899     -4.89207653005591     -0.23272534360566
  N   1.59552302626769     -4.62357795213103     -0.18003927764437
  S   1.30497268524002     -2.99444639737912     -0.03115663956123
  H   5.42858681497505     -4.66143782687122     -0.86100560980241
  H   5.49738123562951     -4.13202648693174      0.82679641101451
  H   7.37635569336202     -1.78422463088833     -1.50843835664230
  H   7.37432639007113     -3.54019576127818     -1.35168278276210
  H   9.00079866613161     -2.41811951243221      0.27128925822596
  H   5.98936358527409      1.70348003702320     -0.11406323102688
  H   3.59513488920439      2.01913141395842      0.47842792779305
