25
Coordinates from ORCA-job 25937optt
  Cl  3.22962761045880      1.57451393722350      3.77549854666544
  C   4.35260317339018      1.17659584587432      2.51799041106625
  C   4.21555651872566      1.77532946295684      1.27312170771299
  C   5.20801103452403      1.59273594584148      0.32246976960268
  C   6.17862406884839      0.61210987449822      0.51176999938436
  C   6.31834987981084      0.04930714796235      1.76793843683772
  C   5.53062404773698      0.49442007262564      2.83429990045021
  N   6.15253838633337      0.55941958762313      4.11998281372776
  C   7.12148214426277      1.64581547822095      3.94927847449019
  C   6.69921373418108      2.86533643233538      3.63214798231213
  N   7.37933821006982      3.86016782862329      2.86959394760383
  C   6.62757203736872      3.93364119475317      1.67292298658915
  C   6.98296631917349      3.53417531435539      0.45490367106035
  S   5.67708750844781      3.02632388292155     -0.64166221490959
  O   6.25776172228325      2.62277708440900     -1.88756369258499
  O   4.60340806130728      3.97536193716506     -0.57868963519339
  H   3.43456829994572      2.50819499012544      1.11203073387641
  H   6.91232180398637      0.41849226137703     -0.26154018075581
  H   7.16617254838801     -0.58471345220727      1.99472667071278
  H   5.48567875162169      0.73511817470099      4.86234248134548
  H   8.15109847631386      1.33293586630847      3.82298909466158
  H   5.64699706725832      3.09933102627287      3.75732616435634
  H   8.34501362748206      3.60459725717106      2.69418330578196
  H   5.58911512475390      4.20342054289309      1.84399195490389
  H   7.96126984332752      3.15059230596901      0.19394667030224
