26
Coordinates from ORCA-job 25945optt
  C   1.03346759127653      0.34517769992381      0.37288087838996
  C   2.50139584188745      0.16351860668130      0.13309711502891
  C   3.45346520488628      1.17148151544199      0.26702539117141
  Cl  2.96982862808932      2.78133066059031      0.69634023136981
  N   4.74534728659482      1.00450008738434      0.08623801544118
  C   5.13900410801342     -0.21989615224973     -0.25401483144817
  N   4.33883717115136     -1.26285656077472     -0.44045271802514
  C   3.03553398365289     -1.07289935323298     -0.25314217533541
  C   2.16201585324780     -2.25289538688117     -0.47482586433568
  N   2.70504985924012     -3.40171250501166     -1.18600285510524
  C   2.49846888477888     -3.51525176731588      0.24368830619487
  C   1.42945714835776     -4.48382995397805      0.66418688116754
  N   1.96692976766037     -5.83415305282955      0.55741047557893
  C   6.55076727917381     -0.42808696510408     -0.44579173255543
  C   7.72241794274190     -0.60957650094566     -0.60623009887110
  H   0.82884526146505      1.29779338415858      0.85183695023436
  H   0.64980717077786     -0.45229848918175      1.01001806779281
  H   0.47885622337001      0.31245553877361     -0.56768846011470
  H   1.12179601073966     -2.04010740908799     -0.68384016022336
  H   3.68713631844298     -3.22000470242162     -1.38112353819198
  H   3.38601084889790     -3.48337604165950      0.86793994660796
  H   0.54339692164924     -4.30863232180867      0.04090562520171
  H   1.15357970297842     -4.29730176908756      1.70414532774567
  H   2.19920951989345     -6.02576559060885     -0.41108616701587
  H   1.28630700969783     -6.52410222516401      0.84898549951120
  H   8.76506846133488     -0.76751074561047     -0.74850011021424
