24
Coordinates from ORCA-job 25944optt
  C   1.52857645160965     -0.56845502667617      0.06694257777353
  C   2.95981082385472     -0.22949873609832     -0.25314439226195
  C   3.46067808742360     -0.33406175296814     -1.65623351126174
  C   3.26432910776181      1.02098093335436     -1.03018717255576
  N   4.44643859352384      1.72634537529581     -0.67798838123173
  C   4.48869055299035      2.97864319087155     -0.78170191651318
  N   3.48583839550588      3.83803304129381     -1.21423416891561
  C   3.75442854231570      5.07770933403039     -1.21870133398271
  Cl  2.56641724992294      6.19416062750065     -1.74142686344788
  N   4.94336657860425      5.70194058549802     -0.83898014384510
  N   5.87093037804013      4.93451791628609     -0.45778089254158
  N   5.69361539677124      3.63677215962665     -0.42122635221262
  C   6.83214164037035      2.84992411648153      0.01496593514360
  C   7.45686084752225      2.13132418994065     -1.10324500546858
  N   7.97559161953013      1.58647215853662     -1.96569131823506
  H   1.40675565940071     -1.64189469333402      0.22025109030511
  H   0.87261954898410     -0.27476691377478     -0.75453161597885
  H   1.18969985756570     -0.05539569154826      0.96825325112334
  H   3.68648023690847     -0.45677040664412      0.51654012107893
  H   2.75773738963672     -0.62560826088885     -2.42481591465040
  H   4.48423091389335     -0.63989801284482     -1.81654569606698
  H   2.41892758976600      1.61031566655759     -1.36516300105035
  H   6.49542845609145      2.12376306072144      0.75380507130847
  H   7.55040608200657      3.54044713878230      0.45183963348714
