27
Coordinates from ORCA-job 25943optt
  C   3.03147168193932     -2.34098001542329     -3.27375443569425
  C   2.84942448539730     -2.01221436037376     -1.79822903689780
  C   3.21443609078300     -0.56103807854048     -1.46774537332254
  C   2.81155921475794     -0.20431470927676     -0.10410484456434
  C   2.49364407887154      0.05939248152776      1.01982750941081
  C   4.70246777761433     -0.26940962648938     -1.60307642143411
  N   5.52559666505306     -1.24075053086661     -1.62893986776244
  C   6.88383708463194     -1.11207316068974     -1.69483233304626
  Cl  7.76224915285480     -2.59441081227917     -1.83087625903195
  C   7.55772854336766      0.04194254458972     -1.62243124814165
  O   8.91688049996531      0.12846127853236     -1.65542539584155
  C   9.57896684502507     -0.24553319004543     -0.49369400260998
  N   10.90555096555341     -0.25027398557664     -0.73117993866703
  O   9.02045382766054     -0.48282254566469      0.53302858566925
  S   6.77717085547812      1.58627328339635     -1.50303362874205
  C   5.06543094582285      1.17314995838423     -1.68810385847483
  N   4.16629314312760      2.04816216284493     -1.84944000837894
  H   2.71807760030700     -3.36459017556830     -3.47884796490972
  H   4.07426478171303     -2.24690650482547     -3.57509221797782
  H   2.43129975501290     -1.67662484318729     -3.89867596973778
  H   3.45463967829824     -2.67479349859154     -1.17956310341597
  H   1.80799501994304     -2.15694159177646     -1.50772930574754
  H   2.69270429558424      0.11730659103548     -2.14927445504872
  H   2.20808452273954      0.29842126219068      2.01598872027607
  H   11.25050197272750     -0.17988257200352     -1.67156948043500
  H   11.50471586167536     -0.59184736197824     -0.00130119947423
  H   4.52555465409525      2.99929800065528     -1.90392446599960
