31
Coordinates from ORCA-job 25950optt
  C   1.01152962285379      0.10143881659668      0.23630324138077
  C   2.50305302463682      0.04248124703134     -0.11364798810625
  C   2.68990787374383      0.20182172911062     -1.62204119254797
  C   3.34042235352315      1.12032026168046      0.63978976713923
  N   2.73106389195733      2.40765478515039      0.89549236930064
  C   3.81924554292586      0.48515341756662      1.97119737401948
  C   5.15347210935102      1.07632417902349      2.39959407809529
  O   2.84060213777642      0.66531194463251      2.98461760016805
  C   3.81886694730710     -0.98875249704938      1.62826980925517
  C   3.09367132197075     -1.22792118557042      0.46147179038873
  C   2.95682960183335     -2.54191877036787      0.02906995828369
  N   3.50690440049369     -3.58094171499418      0.66259160130814
  C   4.19430340224641     -3.34719236132198      1.76352778367306
  C   4.36470679562339     -2.06767006508429      2.29661721476648
  Cl  5.23228175023808     -1.91445107986229      3.77604681627409
  C   2.17217050928461     -2.86290494409490     -1.14153769829612
  N   1.53172698164363     -3.09535284451657     -2.06406029692486
  H   0.56254076490936      1.00739649606937     -0.17599270383323
  H   0.85702074455463      0.08207166337153      1.31614212517968
  H   0.49244733589284     -0.75027926943883     -0.20599421997902
  H   2.44803644322049      1.23025413372239     -1.90270256660084
  H   2.03744097677237     -0.45843635723083     -2.19086712327083
  H   3.72276642468940      0.00365741002075     -1.91484069605375
  H   4.23856111258872      1.29607383256469      0.04095304626879
  H   1.76036402633845      2.31208671757196      1.16789909262886
  H   2.77247029968376      3.01962658172961      0.09213279925002
  H   5.07865923303593      2.16470098031643      2.33971674483379
  H   5.95888686235304      0.74865871728891      1.74071969154256
  H   5.39482560912980      0.79437650882200      3.42088195367390
  H   2.79353316299346      1.61539349275303      3.15532307620363
  H   4.63168873642847     -4.20098182549123      2.26732655197878
