30
Coordinates from ORCA-job 25951optt
  C   1.09085690817846     -1.08580038367709     -0.26809388750097
  N   2.44376441820376     -0.63829264856764      0.03597533337731
  C   3.21528250243661      0.09019475385209     -0.87016778800819
  C   4.55358843127998     -0.09221742354521     -0.87023786537257
  S   5.23156378494822     -1.32896278251290      0.20557032554147
  C   4.19807322322187     -1.05379967734634      1.62190554540559
  C   2.92901524362863     -0.75879500368475      1.33867710244057
  Cl  1.76695630342552     -0.29889308285274      2.56290016388515
  C   4.92004729770661     -1.05097244394557      2.97723100049829
  C   5.10909128956887      0.38588054773722      3.45669362967500
  C   4.21649535688268     -1.91452114271593      4.01708891968039
  O   6.18758050455643     -1.67458297996372      2.82670487137742
  C   5.46759499558193      0.64956856645630     -1.65959856889673
  C   6.27294818870726      1.23707722332723     -2.32894636433797
  C   2.60693402923693      1.08450526641230     -1.75123800652205
  N   1.40701024137094      1.46202605668334     -1.58153014406759
  O   1.04521124167688      2.40912501051806     -2.51329936826886
  H   0.99506978847175     -1.19715772484540     -1.34444150247052
  H   0.33365442356311     -0.38668519633560      0.08377459542276
  H   0.93811482015129     -2.05794324548226      0.20016698145730
  H   4.14899802255909      0.87306948705366      3.62486373563776
  H   5.66000300540810      0.95951989370138      2.70719985679274
  H   5.67863121342373      0.38302441835276      4.38692754295184
  H   3.25852289674273     -1.50121055113602      4.31452377784562
  H   4.86473548317483     -1.97493527145344      4.89120520681497
  H   4.06849530107713     -2.91988292794628      3.62378048959582
  H   6.73921547083901     -1.13382059303344      2.24982559953801
  H   3.22042507716631      1.50130581672697     -2.54651805646931
  H   6.98249544103034      1.76318924537840     -2.92176940317929
  H   0.13762509578094      2.62798679284464     -2.28017372284400
