22
Coordinates from ORCA-job 25952optt
  Cl  2.32081340344362      0.54065745313021     -2.39828146700317
  C   3.36213137258668      0.40523432857764     -1.04905464050545
  C   3.46517513943141      1.33143701241875     -0.09413948883280
  C   4.41128852026727      1.05378978752387      0.99087324023290
  N   4.63847277278437      1.72071323273857      2.02925615601786
  O   5.13367845473247     -0.10975560427030      0.85353803693890
  N   4.95106621827713     -1.00060512227867     -0.18519413949579
  N   4.12449037110387     -0.76995496800003     -1.05940455719097
  C   2.68930755674223      2.58973222654315     -0.06814915147113
  C   1.41498439495775      2.63668130561458      0.30828361930025
  C   0.61926406895299      3.89684412302899      0.34038225236591
  C   1.37058515101646      5.15321282922068     -0.03340105797541
  O   0.86115921649033      6.24400103465554     -0.01142854309340
  N   2.68670321167888      4.99394339151983     -0.41280244799379
  C   3.41635447824151      3.80979076598243     -0.48306609692972
  N   4.61982404234273      3.71210804558268     -0.86547321131678
  H   4.07673442259954      2.56718403936601      2.05050766053080
  H   0.90985191072576      1.72275827217217      0.60117656611398
  H   0.18940802537404      4.06045870846098      1.33191287395779
  H   -0.23732253373080      3.82344716669689     -0.33623273856621
  H   3.15228873261653      5.85431355545150     -0.67225065989265
  H   5.02874106936520      4.60700841586449     -1.12905220519114
