25
Coordinates from ORCA-job 25960optt
  C   1.08469817165154     -0.09783258723207      0.27936247386292
  C   2.56463226631754      0.04963288236350      0.15976028971095
  C   3.26714853026948      1.20394820757558      0.17740115435369
  Cl  2.44665760834093      2.71818839788808      0.32237888647412
  C   4.70756301866741      1.24444990442718      0.04452194348261
  C   5.47690153308392      2.50243769500047      0.08544057937762
  C   6.26586752079329      2.93150239722341     -0.93394752107819
  S   7.05130663997920      4.40776478285969     -0.54546081850570
  C   6.29148657862551      4.47234056819651      1.00477127266022
  N   6.60411059351574      5.49466544340707      1.89387720923086
  C   5.48762500996783      3.39245132284818      1.20442887394814
  C   5.32628323017575      0.05179661348382     -0.11812343154201
  O   4.65731900850454     -1.11996918914372     -0.15894354817954
  C   3.29451237601964     -1.20583076902303     -0.01591507449199
  O   2.79227458548534     -2.29177103619769     -0.05237544415028
  C   6.73460513561676     -0.12411543342342     -0.25169885156713
  C   7.91260582147854     -0.31178964251051     -0.35646773851508
  H   0.60006843805724      0.84933877047055      0.49284448643243
  H   0.85340041788501     -0.81724474642403      1.06561427102420
  H   0.67900213292007     -0.51157524499443     -0.64598111028004
  H   6.42586654403553      2.46059885885428     -1.88980841523221
  H   6.72761118540151      6.40228643754456      1.46978071955049
  H   5.96989178501881      5.54560657678011      2.67758932054629
  H   4.92061845415216      3.23029661522898      2.11012944215440
  H   8.96094341403660     -0.46817682520311     -0.45117896926681
