28
Coordinates from ORCA-job 25966optt
  C   1.03443061450370      0.37488908219968     -0.33520268291851
  C   2.52497121997785      0.21024643199237     -0.19929903747388
  C   3.14205096883931     -1.00288950358274     -0.54667529315414
  C   2.32797063023408     -2.16724472580005     -1.10046940140708
  O   2.89547648543985     -2.72978579649623     -2.25702311088631
  C   2.01102220510084     -3.25076675936011     -0.06030181462360
  O   3.10481924130803     -4.06229642307880      0.30037642670287
  C   4.04938132225107     -3.50158180176526      1.18211789010596
  C   5.33770461579798     -3.17950418883625      0.44844314285125
  O   5.11189606802503     -2.34752949399528     -0.68642754383524
  C   4.51773319646701     -1.13997409779823     -0.38601997043735
  C   5.30624744797688     -0.09856903761296      0.07406802179457
  C   4.71122856579327      1.10446355145857      0.40200500528122
  C   3.33774154025020      1.24248133695119      0.27236936239837
  Cl  2.66214604975792      2.78387151096651      0.71747902823971
  H   0.50411604742181     -0.43820137314581      0.16156549586713
  H   0.74060332626665      0.36602621039887     -1.38692207411255
  H   0.69728802319199      1.31029391918619      0.09890690462398
  H   1.36189993538389     -1.77842171160798     -1.42119685662782
  H   3.77216492749800     -3.05701855875236     -2.01873842099231
  H   1.28471247375303     -3.93099227924004     -0.50522484235011
  H   1.56342217920764     -2.78994484328344      0.83010300959755
  H   4.27160272285039     -4.23467945812023      1.96237544955068
  H   3.64520843008768     -2.60651466609808      1.66600775001606
  H   5.77921415805261     -4.09151430361221      0.04945990967565
  H   6.04914499335630     -2.70406890512285      1.13281868393664
  H   6.37529849978498     -0.23940089984168      0.16642748553865
  H   5.29950411142195      1.93862678399723      0.75797748263861
