27
Coordinates from ORCA-job 25971optt
  C   0.99178708478008      0.15178947520306      0.09220407700372
  C   2.48498433278673      0.06203455596563      0.06841080964591
  C   3.18247780789947     -1.13657909069679      0.00575358375705
  Cl  2.26980995991590     -2.62013583626063     -0.04932938682224
  C   4.58674291215082     -1.25019224371279     -0.01264059265979
  C   5.37520730264509     -0.11863367681043      0.02324518377064
  C   6.87732683506689     -0.00262168036674     -0.00437129213388
  C   7.34733726071762      1.30438548675543      0.66915212492306
  N   8.77697092275717      1.55198236873937      0.56076534067455
  C   6.63048241505901      2.54407704484798      0.11052200473977
  N   5.19529088723370      2.33506983677639      0.15207385801456
  C   4.12005002455604      3.17388770250568      0.21664651572937
  N   2.96915442398135      2.55455702145196      0.19831557766380
  C   3.29015483378434      1.21042726962172      0.11465067938860
  C   4.67487594035110      1.07388089600775      0.08527198932395
  H   0.58573309843805     -0.38470297592232      0.95131907593893
  H   0.56266037360300     -0.30318828569644     -0.80196718806912
  H   0.68718860497222      1.19464335306639      0.14501794708405
  H   5.02809114758489     -2.23745217846632     -0.05707849368500
  H   7.23225502526354     -0.00109984880072     -1.04164732488411
  H   7.35059465514299     -0.85173218531388      0.49247636615115
  H   7.10290333131243      1.24404202630803      1.73321812123922
  H   9.07953815443529      1.48683421793716     -0.40570728564527
  H   9.30585038027303      0.86623903649580      1.08541711698294
  H   6.95493026977075      2.71560143473790     -0.92140925592983
  H   6.90204969620308      3.41616311270466      0.70282379924865
  H   4.24555231931537      4.24472316292215      0.28086664854935
