16
Coordinates from ORCA-job 25977optt
  Cl  1.15994435062482     -0.05701657820265     -0.03444630133628
  C   2.87551543774821     -0.03936873933373     -0.03250143512080
  N   3.46096596962766      1.11781094660022     -0.03378008392764
  C   4.80864349435875      1.08203279594222     -0.03204097095863
  C   5.54528804442589     -0.11134257589837     -0.02903033637769
  N   6.88795011262380     -0.15028372629580     -0.02723297012351
  C   7.48608101258000      1.00844501866257     -0.02841355688102
  C   8.99605370687990      1.05658989905798     -0.02648663947877
  O   9.68171445613427      0.08063457488219     -0.02399324798940
  N   6.89278057686046      2.22846968794153     -0.03131689343248
  C   5.59917601128229      2.27238504949034     -0.03316998154256
  Cl  4.81848742624282      3.79111147231911     -0.03699426935250
  C   4.74703369704237     -1.30282456964651     -0.02796269270742
  Cl  5.52110822234065     -2.81971473494950     -0.02431179104068
  N   3.45402097087873     -1.26160873057082     -0.02970125471538
  H   9.40323651034937      2.08168021000123     -0.02761757501524
