27
Coordinates from ORCA-job 25985optt
  C   1.06236771368970     -0.17596802828271      0.15930519052243
  C   2.56143828964898      0.06665657064834      0.03421169712671
  C   3.02322191060503      0.24394799912200     -1.41223027495620
  C   2.52701387994150      1.54284459193747     -2.03104677314691
  N   2.84619760486937      1.63243386669332     -3.43845999571269
  C   1.90685605190957      1.88028219648315     -4.38444199069779
  O   0.74207315550410      2.10692714250912     -4.15957147079371
  N   4.48376483280382      0.22590456052844     -1.51136362120988
  C   5.20017000497181     -0.91908534087366     -1.45293458355000
  N   4.54058533543457     -2.08502106774735     -1.49950051078815
  N   5.17576830883899     -3.22655353048786     -1.49516094492815
  N   6.47222109237089     -3.29796043877685     -1.43334349164913
  C   7.18836227311264     -2.16741982766064     -1.36823691309987
  C   6.59955463501515     -0.93570481553578     -1.37285919666364
  Cl  7.50763849036000      0.52327120680470     -1.29129976986626
  H   0.79410127767194     -0.38237924245182      1.19487822756833
  H   0.76292344512410     -1.03662361900933     -0.44114691245664
  H   0.47671660775914      0.68359371372015     -0.16727371333295
  H   3.10202059303400     -0.78733178573678      0.44687642485948
  H   2.85888417247650      0.94677429809833      0.61396304588312
  H   2.65918632629549     -0.59451457459873     -2.00730537079202
  H   2.95171753728173      2.39340510091152     -1.48383948759608
  H   1.44413505901238      1.60961803533930     -1.95178358934041
  H   3.78096795056060      1.40813334272616     -3.73911276011385
  H   2.32031320793297      1.85686526422315     -5.40493667137984
  H   4.97610875681088      1.06954169056780     -1.25234813847664
  H   8.26369148696409     -2.28063730915146     -1.31203840540924
