26
Coordinates from ORCA-job 25987optt
  Cl  1.26481015056044      0.11104754229932     -0.79550737002236
  C   2.92877296164032      0.09726423695714     -0.37404905238579
  N   3.49473356907770      1.22818555515441     -0.19933645895749
  N   4.80170703133112      1.22774192041991      0.18064180561138
  S   5.90774736163177      0.12377696144381     -0.38986626424888
  O   6.06116107761331      0.20464776516440     -1.80559052812971
  O   7.05256584676363      0.21290848474790      0.45537025199018
  C   4.92897435687817     -1.27639776024742     -0.06261534173762
  C   3.59494642815621     -1.17369162676020     -0.16628110704352
  C   3.01160070959359     -2.54236082159199      0.04935780816716
  O   1.86145756247319     -2.86315797872808     -0.02623944337463
  C   4.17038094893365     -3.46132598543325      0.43926823370078
  C   5.45316170210069     -2.65329888781004      0.19932823818536
  C   4.01763214042795     -3.82060009518457      1.91005050647800
  C   2.91357048601121     -4.81085868483617      2.30104539717223
  C   4.07342199530738     -5.63888593518761      2.87178123130032
  O   5.04723238808983     -4.71993575133937      2.33681482975738
  H   5.17715748289229      2.15909797953820      0.31573238910942
  H   4.12828566921691     -4.37644809091401     -0.15173219795045
  H   6.02246320042440     -3.00956563830686     -0.66129846757263
  H   6.12828540616137     -2.66362053830983      1.05780297256710
  H   4.03013805178832     -2.90386454710689      2.51353737922345
  H   2.40676648321533     -5.25625526297165      1.44858229324771
  H   2.17812658522213     -4.44784937885698      3.01225852628574
  H   4.20669985195985     -6.64205923409451      2.46770509682577
  H   4.12220055252895     -5.67149422804553      3.96123927180106
