27
Coordinates from ORCA-job 25981optt
  C   1.06556142220659     -0.05937393100274      0.08570555574899
  C   2.56784427420023      0.00526060450347      0.09317304707841
  C   3.31844858338810     -1.16744077443225      0.16848639146371
  C   4.69703945576219     -1.10585621215173      0.14667564708287
  Cl  5.60458436271781     -2.58596342555383      0.25365083767824
  C   5.38377937188173      0.10175257415590      0.04540971703389
  C   6.88965289521203      0.14286088183761      0.00060505534512
  O   7.38439152210315      1.40442953340184     -0.38682057399500
  C   6.78671600913118      2.44496411191582      0.36075023917966
  C   7.55549324255326      3.67284677969514      0.16994164660994
  C   8.14372949010265      4.70263243030615      0.00996854538328
  C   5.32106776806230      2.61781034962980     -0.08694225077542
  N   5.15496908837939      3.16157666045871     -1.42492607652081
  C   4.63302074141503      1.27209831647787     -0.00106049789748
  C   3.24223326699416      1.21372826048856      0.01486739130600
  H   0.69786498621688     -0.73723481911215      0.85659003961103
  H   0.70117600381161     -0.42687590875414     -0.87559443037901
  H   0.62947167156101      0.92386895805419      0.25554371473158
  H   2.82991453920613     -2.13074661157755      0.24566640407117
  H   7.26701921387511     -0.57386016702044     -0.72777140809820
  H   7.29865204893888     -0.13819024141524      0.98135111580911
  H   6.80224619772970      2.18399547382678      1.42914856922370
  H   8.68099299322787      5.61050342757699     -0.12801431592760
  H   4.83892046337841      3.30402129335832      0.61479025540625
  H   5.59316488235245      2.54237496572242     -2.09980033372449
  H   5.62131352858410      4.06037541106321     -1.49589721654029
  H   2.68373197700794      2.14144205854728     -0.04249706890465
