28
Coordinates from ORCA-job 25986optt
  C   0.95151307764502      0.49456049437671      0.22854538964215
  C   2.44181076552734      0.56996141576028     -0.01987921735601
  O   2.72342763707312      1.39083060364512     -1.14374924803766
  C   3.32551908121874      0.88463492849999      1.21834106199072
  C   4.14759083764823     -0.40154951642671      0.96440352404794
  C   3.18170939211214     -0.77376981952862     -0.18449712414273
  N   5.51430613407850     -0.14857476259263      0.51776558485607
  N   5.60514743074041      0.68815421980643     -0.49696505763324
  C   6.74802081192863      0.99678398056028     -0.99507323715124
  C   6.75257027529805      1.96152506713416     -2.14969174719465
  O   5.47745757240611      2.46577096144202     -2.41685071176825
  C   7.90440290363481      0.37087825892870     -0.41204727346751
  Cl  9.44002873711294      0.73547863210728     -1.12050946791863
  N   7.85460834784839     -0.42910849428204      0.57548710805975
  C   6.61744421702884     -0.73112430451354      1.15353293533042
  O   6.49182541049461     -1.43765754986546      2.11872087373605
  H   0.55313725144696      1.48259811621974      0.47551075757458
  H   0.73019370099684     -0.17329306602214      1.06180426260433
  H   0.44184670921165      0.12592875166186     -0.66268380656478
  H   2.27167535899537      2.23505625829473     -1.03573795982553
  H   2.78635957385883      0.86983368497790      2.16455286470690
  H   3.89701520486811      1.80716318897669      1.12978135199305
  H   4.21915764372997     -1.10181456061862      1.78834686262204
  H   2.56793814990982     -1.64617897085683      0.03292432699022
  H   3.65499014120863     -0.88502629883073     -1.15819442826217
  H   7.16805276553372      1.45178450035862     -3.02832938590910
  H   7.42749988713179      2.79153445699986     -1.91916861755787
  H   4.80375098131234      1.92761982378694     -1.97033962136488
