25
Coordinates from ORCA-job 25989optt
  C   0.93155797548313      0.45160303005594      0.04783479312397
  C   2.39082982245640      0.03835201412876     -0.03092051191535
  O   3.22488247816227      1.20148830889931     -0.17272444817821
  C   3.32793367739009      1.69837930587094     -1.40247427243767
  O   2.79939298727856      1.26196201154607     -2.38260989892710
  C   2.83758565822443     -0.66808996032075      1.22219677478893
  N   3.16012434229246      0.03557921588975      2.27772131996272
  S   3.61005989275636     -0.94703326622267      3.50221675020587
  C   3.37849361143558     -2.38105676261682      2.64112964629462
  C   2.93735210721659     -2.08942906627926      1.37666204327202
  C   2.60669928666795     -3.10549751071687      0.36640346123816
  C   3.32552683648211     -4.29711426293778      0.26758453607029
  N   2.99416245616782     -5.25303479037834     -0.59156585425917
  C   1.96134046590459     -5.01738853747482     -1.36598740326606
  Cl  1.47597878856377     -6.24462526523939     -2.47676999851052
  C   1.25470981310423     -3.81569973597875     -1.32363870304028
  N   1.57645750915330     -2.87589674146031     -0.45404911253222
  H   0.64197742622142      0.96055442168060     -0.87033542427843
  H   0.78893808859008      1.11548403586334      0.90051833256326
  H   0.31137226884236     -0.43493625240298      0.17072820997900
  H   2.55053816450268     -0.60492760969938     -0.89461323301628
  H   3.97910102135106      2.58043740610853     -1.38893424768362
  H   3.53716810519469     -3.35614818438238      3.07604989630791
  H   4.19433942424400     -4.47811146575501      0.88931388701538
  H   0.42647779231403     -3.63185033817768     -1.99673654277722
