24
Coordinates from ORCA-job 25999optt
  Cl  1.41046351824422      0.25929550711825      0.09483328371622
  C   3.11474028038339      0.06924944022957      0.02673466031750
  N   3.85104755237966      1.10635979466578      0.13169729842911
  N   5.19377737347331      1.00268599574228      0.07148066657776
  C   5.91796835418247      2.27076460988762      0.19849707572399
  C   6.33648553002322      2.60212129485629      1.64575297278063
  C   6.24833170665946      4.13597673131977      1.73950452318499
  C   5.30827470380898      4.48734498046302      0.61632842133895
  C   5.10767628505759      3.47163765192088     -0.20946329545509
  C   5.91879121587409     -0.19021785711557      0.02127783878400
  N   7.18164019652156     -0.34574314405025      0.10639042043579
  C   5.04965262808393     -1.33743198177530     -0.16486466097519
  C   3.68479575444911     -1.23597394751917     -0.15867068276747
  N   3.03038846110928     -2.41967370199738     -0.34477527935798
  N   3.82542583536551     -3.39819528041626     -0.49027908227568
  S   5.44435599155102     -2.95548883683006     -0.40164680482952
  H   6.78672936173615      2.18133227568788     -0.46232680586807
  H   7.31580646054864      2.20818319844382      1.91294497318741
  H   5.59812095261093      2.15253380646533      2.31179954931020
  H   7.22353181733238      4.60456362835613      1.57823967739033
  H   5.89171866722147      4.47470733058935      2.71263268512152
  H   4.88291341869005      5.47410599617203      0.49169138758787
  H   4.49966859861383      3.47965891919464     -1.10274589502211
  H   7.69069533607970      0.51620358859133      0.26796707266484
