29
Coordinates from ORCA-job 26009optt
  C   6.51418579055889     -5.03562446195536     -1.11173276063047
  C   5.31032919164519     -4.19342121374585     -1.41747738151678
  N   4.11507988884945     -4.58973921012641     -1.25809252547022
  O   4.05985176168154     -5.89173154892978     -0.77368666309018
  C   5.52602337944731     -2.80774888650799     -1.94748774079939
  C   4.25715601071287     -1.98342940187077     -2.26902845266145
  C   4.76484087783564     -0.96124016612095     -3.26076779477362
  C   5.89423330785937     -1.39185908157542     -3.81242243230655
  C   6.30025242682184     -2.74653811597738     -3.27671331732916
  N   7.76889100190122     -2.67952072117638     -3.28819769663679
  C   8.12311769022208     -1.69511333440244     -4.20358484836875
  C   7.03384395995279     -0.87167043473335     -4.56019937998824
  N   7.11264061946965      0.18164035490873     -5.35043954317369
  C   8.31779406549380      0.45449529693092     -5.85585464765692
  C   9.45409004039921     -0.29893880747219     -5.59194290310083
  C   9.35712452518631     -1.39545864871812     -4.74531851685711
  Cl  10.72773003471003     -2.37693762683142     -4.37007752080334
  H   6.40320200290198     -5.52252095042361     -0.14371873558335
  H   7.41755236286391     -4.42749427819803     -1.11284169371138
  H   6.61558941306982     -5.82950211497692     -1.85569122972430
  H   3.11647924664895     -6.05269272347914     -0.68237981577510
  H   6.12913780621989     -2.25300433441432     -1.21961180272182
  H   3.81605380804706     -1.53959340134427     -1.37679502079122
  H   3.49274390523206     -2.62909916100447     -2.71105963197610
  H   4.28832480735604     -0.01095699168163     -3.45539868864779
  H   5.95405427116851     -3.54744220740076     -3.94657551147800
  H   8.28455497510648     -3.54634530009915     -3.34781781131682
  H   8.38265232240737      1.31513985565832     -6.51015781171557
  H   10.40447050623065     -0.03965238433179     -6.03692812139501
