30
Coordinates from ORCA-job 26008optt
  C   1.03024084454632     -0.25539169429452      0.03310406910954
  C   2.54539095590002     -0.03791772336013      0.03694036843047
  C   3.04109182034947      0.52972222659617     -1.26446061239022
  C   3.56032748010946     -0.27984342228685     -2.26200401324890
  C   3.75944221914894     -1.77731836838109     -2.25134389071073
  N   4.23982181525917     -2.03340808937841     -3.60131298661620
  C   4.43688359784176     -0.89224016090038     -4.34988214050055
  N   4.88576773721874     -0.73799318332364     -5.53545012423973
  C   3.98295842865673      0.20409091489405     -3.49529019133832
  C   3.90378601309325      1.55612070881995     -3.76842424626387
  N   4.29620909828163      2.25166787812804     -4.87926473611127
  C   3.66677136423378      3.57439423242111     -4.84678825639526
  C   3.40338668899125      3.81242571821774     -3.34233558489734
  C   3.36368415046255      2.40735290018547     -2.79886051180465
  C   2.95886754837882      1.89858978029268     -1.58433364687443
  Cl  2.32615155505922      3.01848319425138     -0.41208401357028
  H   0.69147886882472     -0.67704904567304      0.98020943770516
  H   0.74211771400400     -0.93667797213776     -0.76901681100610
  H   0.50943658105872      0.68915977029684     -0.12546525088248
  H   3.04964383510885     -0.98887270809821      0.22243604957667
  H   2.81641162570551      0.62644377388371      0.85891557799046
  H   2.82663519047319     -2.31105790002639     -2.04779165208571
  H   4.49154778680416     -2.07621720302030     -1.49407590542723
  H   4.61316078723692     -2.92372489035620     -3.87872265083481
  H   5.13662874042985     -1.62340306588709     -5.96994799200186
  H   4.42239416285958      1.73285824378331     -5.73715768152803
  H   2.72126233300736      3.57038843808178     -5.39979401028638
  H   4.31967816889057      4.32888152740904     -5.28132222348474
  H   2.48613524234119      4.37004720801564     -3.16190031475864
  H   4.22568764572418      4.36748891184710     -2.88257605555452
