27
Coordinates from ORCA-job 26001optt
  C   3.12855579618352     -2.10853918863204      1.75749452491280
  C   2.51629630536146     -1.14863034784332      0.77303871283108
  O   1.51959485013708     -0.52178030338608      1.01392133903910
  C   3.21160262018121     -0.98644311979369     -0.58151782477797
  C   4.65960673307627     -0.65210961326719     -0.45687042858827
  C   5.19915937785343      0.56465496708730     -0.51049531861134
  C   6.62285292409969      0.75998150298106     -0.34191032018111
  C   7.20872327855792      1.97859123189308     -0.29729934078270
  O   6.55179650028053      3.17121107639931     -0.39509103309966
  C   8.62978291828214      2.10554606444514     -0.13171105372382
  C   9.42506125075244      1.03091574838723     -0.03780333324242
  C   8.91611229963528     -0.33937164290536     -0.11128089681876
  N   9.67833567746211     -1.36765585406644     -0.11445726769883
  C   7.43510727753201     -0.45852820007134     -0.19834575988152
  C   6.77456159093438     -1.63660603925172     -0.13724251582264
  Cl  7.44486744055576     -3.17751532903523      0.08719023219265
  O   5.42945499017576     -1.76313470929032     -0.23722112973869
  H   2.44567915671521     -2.26001543589198      2.58891172626313
  H   4.07016844519715     -1.69553389131432      2.12718893360145
  H   3.36947106212038     -3.05594016818361      1.27384013028666
  H   2.69033763844054     -0.20101212024185     -1.12367320494095
  H   3.11244015410165     -1.92722701650174     -1.13083190657542
  H   4.52766935016926      1.39071569851208     -0.70255403129375
  H   5.59999482925218      3.04637368539080     -0.35261944871464
  H   9.03287019661837      3.10962830500709     -0.08647639602382
  H   10.49552483159634      1.14550207146662      0.08023320518955
  H   10.65237250472770     -1.07707737189346     -0.04241759380011
