27
Coordinates from ORCA-job 26004optt
  C   1.07080228856221      0.28972976429881     -0.23505888599923
  C   2.56232417752983      0.28289011187018     -0.06029625258315
  C   3.24257731755989      1.42660378428299      0.29656498280426
  C   4.63070974440151      1.37925575676768      0.44901931858558
  C   5.32217727005752      0.17916443360283      0.24902379873179
  N   6.63409620222719      0.45691837605669      0.47704539975542
  N   6.83274043008990      1.75738771677942      0.79827362166573
  C   5.65100049029531      2.32044946103609      0.79223016886826
  N   5.43512088943429      3.65791751380462      1.13075662670063
  C   6.51668356745077      4.58968473323430      0.89768611139786
  C   5.31083798355422      4.61011181837775      0.03335236040530
  C   4.67805968048323     -1.01312074219336     -0.11344666690830
  C   5.43111165737185     -2.29216230943139     -0.32287550312916
  C   3.30913230501299     -0.90683654980147     -0.25562728004628
  Cl  2.43441971633774     -2.34463175673203     -0.70171646487417
  H   0.67437656711819      1.28428051826008     -0.03865127405173
  H   0.59053064303390     -0.41663537334376      0.44398228166154
  H   0.79111264494266     -0.00290168271093     -1.24843581236656
  H   2.70407217654330      2.35145802113094      0.46143049996651
  H   7.42352043285672     -0.16044522015307      0.43873073707140
  H   7.42747543112072      4.18404399886657      0.47658023888568
  H   6.64237391278848      5.34419584237551      1.66215724149371
  H   5.41656697932232      4.21571043310443     -0.97057721956066
  H   4.55521107220905      5.37215743920621      0.16784962353104
  H   6.50036815204658     -2.15209195260289     -0.17188506645393
  H   5.27701886787232     -2.67444597457365     -1.33294837973470
  H   5.08757939977722     -3.06268816151254      0.36883579418315
