27
Coordinates from ORCA-job 2601optt
  Br  1.41626440027387      0.43898453931957     -0.40893548772931
  C   3.22094900609618     -0.07476894898244     -0.42296915424090
  C   4.19745602029845      0.84852839144469     -0.49136557269693
  C   4.06930684375650      2.36425595652672     -0.53354704339741
  C   5.55173877998675      2.79492341755246     -0.40544136165754
  C   5.74108356646339      2.99982954539914      1.10963773750318
  N   4.40092636531857      3.21880905200115      1.62067529167415
  C   4.15640557228059      3.50201220072292      2.94630759419996
  N   5.00352397991286      3.67142446563284      3.87162468543624
  C   3.40617541140967      3.04652517820024      0.64652959230582
  N   2.21212013164093      3.44701388930398      0.65343955883228
  N   6.38171779551917      1.69236631522986     -0.86817674966186
  C   5.60542377121950      0.51727759301062     -0.67252912292216
  C   6.10201613765164     -0.72203465245019     -0.66611403105840
  S   5.11913972127418     -2.12717050591124     -0.48924656412534
  C   3.44718303845671     -1.53400956953388     -0.40403100633346
  N   2.48293262375587     -2.35026478625389     -0.31247797065600
  H   3.58179360756347      2.67698735478071     -1.45762045912987
  H   5.77467268851122      3.70596950974371     -0.95519309167031
  H   6.38444165002444      3.85425902489646      1.32901550994552
  H   6.19019978766459      2.10677956594698      1.55411206330889
  H   3.09731544305567      3.55252246488582      3.18971613237300
  H   5.96540791822388      3.59639391813761      3.54375502940591
  H   1.96701490630619      3.95868687642873      1.49811914934110
  H   6.67609217834081      1.79885418453172     -1.83034384249474
  H   7.15932562133917     -0.91722251679560     -0.78392984397757
  H   2.78337303365566     -3.32293246376872     -0.31001104257427
