30
Coordinates from ORCA-job 26014optt
  C   2.79971501823917      3.03201213691925     -2.79166282838514
  C   2.46153768221003      1.55500773162569     -2.64277635039031
  C   2.99398315771290      0.83499347752023     -1.39082020867903
  C   2.33968316102992      1.35587418072035     -0.11443967207169
  O   2.67103279254718     -0.55433633986951     -1.53053845804597
  C   4.51384197495016      0.88935855974893     -1.32213093958998
  C   5.23170587970621     -0.17752739345407     -1.76060694278735
  N   6.58632963366448     -0.26164507295870     -1.75935004748720
  C   7.20242497285837     -1.47490682981693     -2.31193871500629
  C   7.31985686923556      0.78811048283735     -1.26458682906903
  C   8.81066001635605      0.71358742648018     -1.23518808335463
  O   9.45511979046763     -0.26844365114044     -1.49007498884953
  C   6.67382597452072      1.89659786598066     -0.79505264581210
  Cl  7.52020176698036      3.23601831665469     -0.13012533357372
  C   5.20886396582336      2.05207711832725     -0.80167087778018
  O   4.68110580418809      3.07694044128264     -0.39836594462608
  H   2.30057676348578      3.43505986625281     -3.67332763463476
  H   3.87156704422627      3.18563491819187     -2.91165330408241
  H   2.48648999353876      3.61068148552119     -1.92390431030027
  H   2.83338873690828      0.99842546300356     -3.50710455487457
  H   1.37214128385549      1.43215565465920     -2.63124416635252
  H   1.26338855497740      1.17371512374014     -0.17533249149898
  H   2.51572434515582      2.41813143326940      0.02305049985596
  H   2.73304369413510      0.82094172487526      0.75011979440352
  H   1.71297064119616     -0.62780595466819     -1.58216989065576
  H   4.71833605489387     -1.04656228637996     -2.14281557599260
  H   6.39942253535544     -2.08913444351213     -2.70786815844504
  H   7.74135305107914     -2.02151487099092     -1.54382181869502
  H   7.89528560953825     -1.22418772352047     -3.11008981120179
  H   9.29742323116394      1.65374115870064     -0.95050971201747
