26
Coordinates from ORCA-job 26016optt
  C   1.03726063683644      0.01623158136046      0.42461567232452
  C   2.44621271870455     -0.27468024058299     -0.07048702367969
  C   3.43496099202889      0.83676436521828      0.25962331802709
  O   3.97736015612797      0.45862155814987      1.52461893824319
  C   3.87860849913697     -0.88945127025097      1.67623862263313
  N   4.43792603161573     -1.54302920652425      2.59727163506888
  N   3.06554907684315     -1.37881903888375      0.66742940718619
  C   2.69870177796949     -2.70374847371980      0.44017178478054
  N   1.88258248430001     -2.86926221598992     -0.60199578653388
  C   1.47012255083389     -4.09538393998862     -0.90627445464593
  N   0.58132305935060     -4.19807000289263     -1.95240046568058
  C   1.86462315510166     -5.22829155006164     -0.19012955993707
  C   2.71569579699576     -5.01854547761730      0.87453858292781
  Cl  3.24029499081654     -6.38126003179768      1.80256455810766
  C   3.16003652106806     -3.75696058859561      1.23007120478849
  H   0.60586165304878      0.84542321273574     -0.13818658838044
  H   1.05974111268191      0.28923386585764      1.48159029103784
  H   0.40304620248374     -0.85898597541686      0.29757353044477
  H   2.44026452050934     -0.50943205384692     -1.13200855813990
  H   2.96254992758446      1.81068706795472      0.36876588261848
  H   4.24596322055342      0.89586479931060     -0.46900281304385
  H   4.99898160983145     -0.91835165760107      3.16814185743944
  H   0.54497503020632     -3.39594743462483     -2.56025115105547
  H   0.51027431926048     -5.08957218985779     -2.41220974637276
  H   1.51317646304292     -6.21627891239611     -0.44800800819961
  H   3.81790749306743     -3.58875618993855      2.06473887004117
