27
Coordinates from ORCA-job 26021optt
  C   1.07015831096718     -0.03695002368499     -0.01373143228865
  C   2.58702558323977      0.01423442534772      0.01874961361393
  N   3.06829946387294     -0.16396019358415      1.36837786517649
  C   4.32944622986418     -0.20050946489803      1.54677715524945
  N   5.27176590023976     -0.06563065488915      0.53928757793407
  C   6.64732236318354     -0.01582427719133      0.75784376668585
  C   7.55053397869303      0.04395798764945     -0.39118371199796
  N   6.99013802813843     -0.12393106284427     -1.62434300112503
  O   8.75373279924981      0.25442370901521     -0.25935462770498
  C   7.14265777142474     -0.12789232661004      2.02015245899944
  O   8.44920196202914     -0.09648491192891      2.29692292409975
  C   6.24080479293885     -0.33576108328863      3.13617296660839
  C   6.80269753391416     -0.50111051758622      4.51551371782805
  C   4.91453927378850     -0.37978645253125      2.88095933373020
  Cl  3.79785151030561     -0.61463022663138      4.15708815202683
  H   0.69189626100189      0.09884568184316     -1.02750953114344
  H   0.65825450835980      0.74443673698320      0.62418037547253
  H   0.72272136511071     -0.99752361985618      0.36559286608735
  H   2.92498702561365      0.98111570652617     -0.39078159883482
  H   2.99901834950979     -0.76401590861166     -0.64421745561230
  H   4.93250776200742      0.35549017578087     -0.31293215666458
  H   6.15000212608555     -0.67283690731522     -1.71335497904543
  H   7.64843419530657     -0.18732559850432     -2.38559809050085
  H   8.92026841366402      0.08315965712633      1.45100863677497
  H   7.88698262688519     -0.45815169444044      4.49767934452583
  H   6.48356324522382     -1.45451568883660      4.93796871667728
  H   6.42218861938188      0.28217653296068      5.17273111342759
