29
Coordinates from ORCA-job 2603optt
  Br  1.61795097517872      0.75920485461307      1.82293725765283
  C   3.08999166485807      0.30815607250502      0.75233869854326
  C   3.37754344279353     -0.93575445620949      0.33976747662834
  C   2.79902247620552     -2.32278596839997      0.52718712748295
  C   1.32719893724985     -2.49548615218541      0.85811547760487
  C   0.38734406731631     -2.10541267299126     -0.27157186191675
  N   0.38827950910847     -3.09668070056456     -1.34130002329884
  C   1.34373959212673     -3.11632778920995     -2.33090551992734
  N   1.20700018376136     -3.54410114398664     -3.52439785557860
  N   2.58351660453315     -2.59325175310141     -1.95783903905764
  C   3.29472779973288     -3.02852619903839     -0.75998472452886
  C   4.71532159180610     -2.47770091604187     -0.86248172063108
  N   4.51385613735572     -1.10151765854151     -0.42536878458171
  N   5.35192241639463     -0.14214782944771     -0.78052832992288
  N   5.12956862782152      1.03569213230837     -0.42282242582047
  C   3.98727726611116      1.39356632455950      0.36036413496185
  N   3.78542218147507      2.60164121506043      0.68618757140167
  H   3.37497992546016     -2.76520734149655      1.35023512047409
  H   1.15969461621459     -3.55048869220533      1.08761229343172
  H   1.08808976933023     -1.92735997282260      1.75368509949306
  H   0.64131580702085     -1.11231576544459     -0.65479259326865
  H   -0.62939137535372     -2.05540966353478      0.11478851498651
  H   -0.51675221748689     -3.41056386780980     -1.64974024843114
  H   0.23958748246707     -3.76557329229063     -3.74067927759220
  H   3.17068046867340     -2.61520608311400     -2.78140682076919
  H   3.28366786458183     -4.11512146064883     -0.63756634127188
  H   5.13227635270463     -2.48747461501636     -1.86722221999971
  H   5.39342163971442     -3.00193850476660     -0.18567469749447
  H   4.53374619284463      3.18009189982185      0.30606371143026
