30
Coordinates from ORCA-job 26038optt
  C   2.16363553992648     -1.09351230742797     -0.75867949047008
  C   3.25688320798978     -0.20927757251052     -0.17717708220860
  C   2.82940298160123      1.24957360796806      0.03192019879437
  C   2.42432617232427      1.95887866543996     -1.29220021323270
  C   2.77322163320716      3.39936106140571     -1.03739258553724
  C   2.34438832424626      4.54120973031655     -1.67970401665605
  C   2.87155681741551      5.75542454266934     -1.22600661489097
  O   2.50738631092588      6.93907646494208     -1.76740572144906
  N   3.75275395731185      5.85194001796386     -0.24887003173068
  C   4.14667539261595      4.73979726993389      0.34021157581377
  Cl  5.32042796756845      4.90448084084814      1.60961691429925
  C   3.68840382447171      3.48207061259292      0.00884806046307
  C   3.99702036333360      2.12642250494081      0.57090100145905
  C   1.70095006853560      1.32234118145237      0.97031193381760
  C   0.77350584438162      1.36661409486933      1.73112430758065
  C   -0.34923059239352      1.43200793449986      2.66010123226671
  H   2.51193275975027     -2.12107439916909     -0.86239642332111
  H   1.85727256166244     -0.74585418815172     -1.74710684420982
  H   1.28407679293145     -1.09410901749103     -0.11395677186414
  H   4.12828284141693     -0.20819739974481     -0.83842435305325
  H   3.58780977234871     -0.60905320514759      0.78447497370212
  H   1.37853033102943      1.80041725893322     -1.55146699508284
  H   3.04040034107554      1.57725857802854     -2.11407998813142
  H   1.62806457758506      4.51084084143119     -2.49144809350335
  H   1.86481416361454      6.79357891108829     -2.46870300301008
  H   4.05195152442262      2.11250353614383      1.65853157212171
  H   4.95143119387896      1.75518240824022      0.18332360696789
  H   -0.24903933909832      0.67645808019328      3.43949307580110
  H   -1.29262381563152      1.26161056119017      2.14106366629266
  H   -0.39621151844798      2.41002938455108      3.13909610897142
