26
Coordinates from ORCA-job 2604optt
  Br  1.06378398535169     -0.06226646164473     -0.17555433450775
  C   2.93829667048633      0.10271495619881     -0.02376818411071
  C   3.58429569225019      1.28631987536326      0.15100089220923
  C   2.91683241541935      2.57783631570859      0.29562485299549
  C   3.32168004437133      3.76765634719639     -0.26264273218915
  C   4.56088419478853      3.84578921062442     -1.08961498886708
  N   5.74669470119894      3.52573504666558     -0.30535284430910
  C   5.98052181259642      2.37730359748451      0.37222183744465
  O   6.96012039958301      2.24255452158352      1.07710456024923
  C   5.04061081527060      1.19547446462835      0.17001005837538
  C   5.67494197540790      0.00839821539237      0.06898274790325
  C   4.96688127422893     -1.24563555101368     -0.08990460593043
  N   5.42401261843658     -2.43138920198273     -0.19414477154573
  N   3.58204882990795     -1.08392610407440     -0.13195125167628
  C   2.42446831356204      4.77479076459642      0.16507782166514
  C   1.49779709175534      4.16726672721884      0.97503053827988
  N   1.80937424734191      2.84201914772555      1.05469094115108
  H   4.69899062542136      4.84549059099063     -1.49609888650758
  H   4.49761544509186      3.15970753914552     -1.93853168783629
  H   6.39698723085542      4.26279759278288     -0.07873709582346
  H   6.75385162787975     -0.02451489708563      0.13340284055710
  H   6.43797613249053     -2.43116832772382     -0.15189573327488
  H   3.05086683723108     -1.93431156549271     -0.25625504593890
  H   2.45080670813228      5.82069010794895     -0.09338502026865
  H   0.64684421559202      4.57010570571254      1.49643216242522
  H   1.29781609534860      2.15856138205053      1.58525792953033
