27
Coordinates from ORCA-job 26048optt
  C   1.13994251834524      0.18729230616036      0.33465865356920
  C   2.61056012802416      0.13005791317562     -0.06272012116067
  O   3.38089198703203     -0.71951765917018      0.75174140986403
  C   2.81882335929164     -0.16308548345224     -1.54873150118308
  C   2.91450577979535      0.85549726055758     -2.41479759319657
  Cl  2.64359870297475      2.49866334500663     -2.01028817749236
  O   3.23161453411214      0.76312870048342     -3.72137326261838
  C   3.72637615235410     -0.41099683431996     -4.18089217886328
  C   4.26361309287496     -0.30397693560551     -5.55211620221122
  C   3.75063795403132      0.71243816482608     -6.48292097225489
  O   5.00261709289290      0.86442123599632     -5.85051730788568
  C   3.68147823879676     -1.53315840203642     -3.44337977203680
  C   4.20994191573191     -2.75725794956931     -3.94836777360012
  C   4.66230862874496     -3.78375175160621     -4.37016586015037
  C   3.01091659288807     -1.50837418369448     -2.12765117277563
  N   2.66786766463818     -2.65971473058715     -1.69209663238874
  O   1.96376101381055     -2.63898090641384     -0.49241908958543
  H   1.06991258681815      0.44070805658903      1.39269446828193
  H   0.64509278560665     -0.76654255106439      0.16240984740181
  H   0.62620172563868      0.95788006628632     -0.24256336563196
  H   3.03536435671778      1.11883841278299      0.10631253426130
  H   2.99590710732414     -1.60316178909381      0.70222964203336
  H   4.66932463214867     -1.22820339208966     -5.94360470369128
  H   2.98003062918731      1.39434793812061     -6.14370101030931
  H   3.78722875238168      0.50312056778763     -7.54586740434906
  H   5.06096332554453     -4.70017142970763     -4.73468753040598
  H   1.77851874229331     -3.57049996936178     -0.33818492362078
