30
Coordinates from ORCA-job 26058optt
  C   0.77819766846231     -0.20756034694844     -0.10437810506734
  C   2.30145888179389     -0.15509364276565     -0.16093236279412
  C   2.97497261141240     -0.35838908854017      1.23635958335119
  N   2.90902321175002      0.83328137942478      2.06206623644428
  C   2.37405111668318     -1.53749043103313      2.03740260764033
  N   2.32849654256125     -2.81893916161533      1.34741483503953
  C   3.11778675958557     -1.71161342055193      3.29033459619105
  C   3.75192933631217     -1.89695368675606      4.28803263741182
  C   2.88068416005037     -1.04569654917231     -1.24046376918299
  C   4.10574372929506     -0.80231774877880     -1.76779044270282
  Cl  5.04461490337840      0.54693622670115     -1.21393768547849
  C   4.76016245857631     -1.56638653403325     -2.82786353752857
  N   5.88612505200233     -1.39835794334860     -3.37183531595455
  S   3.85871129199122     -2.95228473631513     -3.48388446796312
  C   2.39095039184284     -2.91427210018813     -2.54636715769920
  O   1.52057296944372     -3.89123091627494     -2.82912258152924
  N   2.06434343511369     -2.08550972988326     -1.64442699730426
  H   0.41190235294845      0.50269683548464      0.63868036466772
  H   0.40113238108107     -1.19692919331564      0.14704728013213
  H   0.34879062742318      0.06591941413947     -1.06775766765257
  H   2.58135039832188      0.86201494384376     -0.44250740142152
  H   4.03179219635059     -0.58509732449625      1.07747913274093
  H   1.95111001966900      1.11934213486639      2.23096409139896
  H   3.39776731467475      1.60952621739437      1.63350264516588
  H   1.34438623008216     -1.26815098820370      2.29857737965243
  H   3.26532386275883     -3.16688879634830      1.17787385196390
  H   1.84198271242858     -2.75769127351664      0.46122638068504
  H   4.30771144555377     -2.04957849043744      5.18153665289439
  H   6.37814272428078     -0.59949742839630     -2.97627181542071
  H   1.85278321417219     -4.48078762093513     -3.51695896768009
