30
Coordinates from ORCA-job 26050optt
  C   1.06283001249530      0.20118723228460      0.04143260367504
  C   2.58378833436152      0.09519107864115      0.03020645624900
  C   3.12758483809663      1.06677676096391      1.10766529368193
  O   3.12865398267496      2.40571951844755      0.68700418718181
  C   3.08028559283253     -1.31472672870193      0.36986296145707
  C   2.49485942725287     -2.41881982918440     -0.51519717529470
  C   3.04537183985095     -3.72905298407120     -0.18130279957526
  C   3.50656058779679     -4.79324492529556      0.11661718424222
  N   3.09359877689662      0.46246278091144     -1.33040184296640
  N   2.20015954882143      0.38761090939642     -2.32584134141831
  C   2.56372958175273      0.63231330753545     -3.53682747784863
  N   1.63121716713081      0.66386404709521     -4.54529476628341
  C   3.95856090121329      0.92109347137016     -3.77847586176188
  Cl  4.46646231594811      1.15415075946058     -5.41672671784916
  N   4.81858897567490      0.98544693033043     -2.85240149078215
  C   4.42515122995949      0.78074665499474     -1.52725866877084
  O   5.21553869273310      0.88256634940166     -0.61268497522511
  H   0.71617133770245     -0.10940584034594      1.02741159727858
  H   0.58316675619048     -0.41685525511615     -0.71054291664761
  H   0.76554724470244      1.23746688883192     -0.12317335302993
  H   4.11715166169685      0.75244219985555      1.43110653719865
  H   2.44846295872652      0.99482772208390      1.95957439833045
  H   3.98643185872776      2.57127860611456      0.27899348227174
  H   2.83006149130455     -1.52006687134627      1.41409592811610
  H   4.16983192160822     -1.32646540116652      0.29827595430433
  H   2.69847208105965     -2.20157651768405     -1.56731790921155
  H   1.40936167251984     -2.45933700044503     -0.40666228624372
  H   3.91289223142548     -5.74041429126942      0.37925124545028
  H   0.73646448418257      0.26935693832018     -4.29940330745112
  H   1.96004249466107      0.43246348858707     -5.46898493907739
