29
Coordinates from ORCA-job 26051optt
  C   0.96829561188210     -0.32909890500637     -0.39005870059959
  N   2.40138595471561     -0.13907566003068     -0.20262007973431
  C   2.97213747605345      1.08025067077115     -0.07517983436469
  C   4.30320854094223      1.28698800231679      0.01449028342967
  C   4.57508363973036      2.75497313443078      0.12393761150211
  O   3.30726685896673      3.34751176946327     -0.18418576870967
  C   2.26966246044879      2.40743652016500      0.02945349241561
  C   1.59652335524965      2.63889955945507      1.39458381505800
  N   1.20135221770660      1.74266300609391      2.20211105754420
  N   1.41893971240694      3.97744993901263      1.63876806838675
  C   0.78909225390786      4.56308398597412      2.74297654469665
  N   0.21204725403614      4.00806635079032      3.71274250262644
  C   5.15290046175635      0.15311932504006      0.00882621926543
  Cl  6.85572413380368      0.40012958577994      0.15501687282133
  C   4.63023536749197     -1.08534083917756     -0.11027347869035
  C   3.19807589222749     -1.30138344092014     -0.25061062084009
  N   2.59019270970265     -2.41449477057109     -0.41658256365917
  H   0.45886707658509      0.62615065997602     -0.30294512939745
  H   0.59295817056865     -1.02198926007352      0.36177871663299
  H   0.78740749460281     -0.77737084391593     -1.36631997518089
  H   5.30196508600433      3.12152586419229     -0.60079487611984
  H   4.89878354745770      3.04922917587580      1.12820953563687
  H   1.51551398640017      2.56287312368383     -0.74802964976988
  H   1.43556844194631      0.80981246918726      1.87777980383452
  H   1.89548361503097      4.59976689584340      1.00446716261174
  H   0.83582655552144      5.65049211340540      2.68644718756519
  H   0.25504392399870      2.99287454386056      3.63670706303661
  H   5.26633599839781     -1.95893964886630     -0.12278308561053
  H   3.25012220245738     -3.18460332675602     -0.43591217438766
