26
Coordinates from ORCA-job 26066optt
  C   1.05545041409248      0.00381053590139      0.14820393266936
  C   2.57780187921552     -0.09359262980948      0.21111428213759
  O   3.20660589602485      1.07743274238049     -0.26408684777050
  C   3.28737698809254      1.15665833053422     -1.67475319209045
  C   4.19161862749523      0.06516372161990     -2.22063989801337
  C   3.83031778667627     -1.25093236874856     -1.60314895961313
  C   3.08465089628983     -1.33036501563650     -0.50600436899431
  C   2.71077713309937     -2.63334897060002      0.07818198586655
  C   1.97956333938097     -3.61685242835739     -0.51616589525761
  Cl  1.35192972280787     -3.44296070092430     -2.11702435832474
  N   1.66838008603550     -4.77617704422833      0.11534023365486
  C   2.05677970589221     -4.97439222364982      1.32658360250683
  C   2.84100768760692     -4.00972752524144      2.10081488431355
  O   3.23101479983063     -4.15606839611807      3.23959263804321
  N   3.11165378880328     -2.86594363342125      1.36843454910877
  H   0.72421151490527      0.89248051711850      0.68379012482011
  H   0.59803825524033     -0.87415724808421      0.60721577550448
  H   0.70991612862223      0.05592170763042     -0.88418503579462
  H   2.87096001312575     -0.14782175047894      1.26471747593051
  H   3.67422715876902      2.14891835538324     -1.89903540368764
  H   2.29070035918892      1.07035713426692     -2.12164332538083
  H   5.24001590189034      0.29498968840449     -2.00905195377280
  H   4.09397881975388      0.00481402449802     -3.30710811862347
  H   4.18472066989402     -2.16053038478327     -2.07599308274211
  H   1.79989733579670     -5.90538603796703      1.81934825620507
  H   3.68940509147006     -2.17829039968895      1.83550269930468
