34
Coordinates from ORCA-job 26064optt
  C   3.38596924055711      0.20458174130486      1.29972651480214
  C   2.46110384538596      0.08168031697131      0.09318222084008
  C   2.90073997114121     -1.07443903477494     -0.79197275459961
  C   2.82787237339200     -2.46616710123897     -0.09763213865817
  C   2.73589565079951     -3.42738412292106     -1.30440164836113
  N   2.36197289242739     -4.78457868130177     -1.00723280277294
  C   1.88397939199325     -2.64188301740738     -2.27313928946539
  N   1.15934452252482     -3.09475402899536     -3.20932232361745
  C   0.46596052273370     -2.12339350080048     -3.97790451033152
  N   -0.57435600792221     -2.37621630533377     -4.64656716316916
  N   1.01958785820225     -0.82382172228792     -4.01616997571804
  C   1.76500143949240     -0.47735332801186     -3.06137781293702
  Cl  2.54157421969901      1.06944550763011     -3.09734210306567
  N   2.08292811250283     -1.29575002089302     -2.00664319553078
  N   1.76565979533459     -2.56201653750720      0.88307778422567
  C   0.39612745399686     -2.55369730408614      0.40649573525785
  C   1.99152589026154     -3.54044340713558      1.93228129154972
  H   3.11846376974236      1.07309265056033      1.90020953692271
  H   4.42534387939963      0.32601853352569      0.98634485077663
  H   3.31508864381129     -0.67863740876820      1.93469688749317
  H   2.48304672861735      1.00641155121745     -0.47931124368305
  H   1.43655750347346     -0.07503435741623      0.42782913918390
  H   3.93601624051362     -0.90046596146617     -1.10710317188446
  H   3.76127312986799     -2.63812890745746      0.43593273413752
  H   3.73230778365381     -3.44662825594512     -1.76253038635771
  H   2.42553158937863     -5.34792517763665     -1.84773882670196
  H   1.39692453367526     -4.83468845636688     -0.70427495511990
  H   -0.81086344688319     -3.35925441830495     -4.52640427266398
  H   0.22386784297344     -1.72903469102047     -0.28390848541200
  H   -0.26824832069281     -2.41500804065331      1.26054478475253
  H   0.08411692974949     -3.47795865234742     -0.10245738598051
  H   2.99198065844090     -3.40858023588798      2.34667684100547
  H   1.89786277092287     -4.58059337406651      1.59786255085576
  H   1.26984259083357     -3.36839425117682      2.73257357422732
