23
Coordinates from ORCA-job 26076optt
  C   1.23722832499361      0.38161344349469     -0.86379931429789
  C   2.42956461485312     -0.13569546070166     -0.05939906893868
  N   2.61310233051965     -1.56205638788808     -0.25749862532265
  C   2.66177539458396     -2.46490141041510      0.73029706169848
  N   2.94903037688906     -3.69365884199574      0.50078544687774
  C   2.88070524924201     -4.57758012381403      1.55631915474358
  N   3.49558894428242     -5.75094894247677      1.37991467323557
  C   3.41966345452137     -6.62079027585571      2.36990711312713
  C   2.74290674900347     -6.36643883923478      3.55473405131115
  Cl  2.67008866195980     -7.54193617409178      4.79887884956163
  C   2.13715951293627     -5.11687893240627      3.63792638026687
  Cl  1.25049531060511     -4.66711333728489      5.04798741958842
  N   2.20113558746340     -4.24357580626865      2.66647324131517
  C   3.65385722272053      0.60214719771325     -0.40403289075551
  C   4.64270767661133      1.20042788389596     -0.71518168673951
  H   0.33335457196648     -0.14415679544080     -0.55948645179401
  H   1.40495611764525      0.21316124700739     -1.92784291289730
  H   1.10910916396632      1.45070056558948     -0.70243571922922
  H   2.23199480926509      0.00750889903734      1.00522177407030
  H   2.85725506564633     -1.89005750553664     -1.18237757421068
  H   2.43435875650467     -2.08080377826710      1.72664327031030
  H   3.91152178070908     -7.57863059269016      2.23429874528536
  H   5.52644032311164      1.72866396763012     -0.98433293720628
