30
Coordinates from ORCA-job 26089optt
  C   1.30898113390284     -0.78853291935547     -0.16283252352948
  C   2.78779044406865     -0.53673728152310     -0.19356448572269
  C   3.64306541290880     -1.60281281507385     -0.33384313212510
  N   3.17754907660763     -2.90681916403752     -0.49745497326095
  N   5.01114354762017     -1.52577862083420     -0.26278642573052
  C   5.55380184325267     -0.38334132398149     -0.05794683617916
  Cl  7.28801493436776     -0.30669209180531      0.06457727768528
  C   4.82338596661994      0.81615182180341      0.06682234514517
  C   5.19586400183690      2.13401253923021      0.26260942680668
  N   4.05195820680574      2.84347639751854      0.26651703485357
  C   2.93406788081884      2.06680805053429      0.08970727850781
  C   1.59883651133826      2.76397370472800      0.02582123502153
  N   0.70193514042125      2.35376539175936     -1.04822820703304
  C   0.82555804070125      2.71999900268685      1.35697626690351
  C   1.56370317278386      3.36663138366214      2.43668824996966
  C   2.18769154800785      3.91708145241980      3.29877588411001
  C   3.38896988935158      0.75051473966156     -0.02859542014787
  H   1.10302188379430     -1.76798591125318      0.27166855750393
  H   0.85332592331135     -0.76749764120327     -1.15895516739258
  H   0.79754671486433     -0.05566797393660      0.45882864852134
  H   2.36136809971770     -3.01340885268977     -1.07870966343286
  H   3.91948267349564     -3.54185308245386     -0.75030526110307
  H   6.16392773823498      2.58565510456295      0.38709160869526
  H   4.00122323821882      3.83733079303838      0.42751906395150
  H   1.82114978423404      3.82121450793444     -0.15292689919407
  H   0.37599284555476      1.40632024727719     -0.90960190535867
  H   1.19181150260139      2.36651875664945     -1.93539872125322
  H   0.61541636295459      1.68514657147551      1.63621311924655
  H   -0.13238789322627      3.22247650322749      1.20997766480642
  H   2.72780437483037      4.39405070997803      4.08135595973504
