26
Coordinates from ORCA-job 26081optt
  Cl  2.05514320476481      1.18807601556633     -3.36626141644769
  C   3.10447409052674      0.79981134586359     -2.03949973934570
  N   3.79715910008906      1.75388360620660     -1.53589983803845
  C   4.64040088117050      1.49240297682435     -0.47304574906174
  O   5.25339940497117      2.34192833376225      0.12138743487142
  N   4.77768824765003      0.13179169894600     -0.08956046518549
  C   5.66840055334126     -0.14436147767360      1.04509785939362
  C   6.28719896781980     -1.51324799545705      0.86705899302540
  C   5.24834915386493     -2.55828265103682      0.57542456035532
  C   5.54705440430050     -3.91639228891856      1.17817155831321
  C   6.94257209440249     -3.85687457843128      1.80016323254922
  S   7.11711934217854     -2.15667651702385      2.33548600454576
  O   6.26715958438662     -1.93998800160305      3.47405230395267
  O   8.49005511269090     -1.75331340630837      2.37298437271415
  C   4.17488635007605     -2.21796743482978     -0.13074317927715
  C   4.00804116565606     -0.85286023800018     -0.62724529768203
  C   3.12301624052736     -0.55024358765347     -1.61971404132004
  H   5.09580450082916     -0.11264371336451      1.97558958196983
  H   6.41252871527122      0.64626126462945      1.07042127343300
  H   7.06008226219271     -1.50713761780262      0.09108323760516
  H   4.80430105505848     -4.12764649173710      1.94886711383761
  H   5.48073875138562     -4.70456294634290      0.42838327080271
  H   7.73783983187628     -4.03616606294941      1.07682527433752
  H   7.07835052842161     -4.49898233589601      2.66715337357764
  H   3.40835462142206     -2.93448612921921     -0.39760792894405
  H   2.50288183512598     -1.30232176755079     -2.07857178998192
