28
Coordinates from ORCA-job 26085optt
  Cl  2.38987509364987     -1.66862626764610      1.99631493814188
  C   2.88943210491612     -0.38259251779305      0.97561877698619
  C   2.58979216384888      0.90309965106611      1.23111569668235
  N   1.65654712583254      1.29443096044485      2.25927888793403
  C   0.57157373445612      1.96641944183718      1.58511675565015
  N   -0.29869360909515      1.33711474416593      0.91575015325918
  N   0.59594332902115      3.34509951118754      1.62656030958003
  C   0.04447866724375      4.13176478194697      0.52796664374423
  C   1.02841563360431      4.45384847817808     -0.61684756363435
  C   1.26106711222122      3.34935344344980     -1.67786469339417
  N   2.66178072137491      2.87995806793818     -1.83643300641601
  C   3.00532445111551      1.82480894432451     -0.99897615317790
  S   3.25526923248500      0.24303080522912     -1.69386529498865
  C   3.62981727731011     -0.76197611613985     -0.24310806959396
  N   4.33086267161490     -1.80632181142617     -0.32290090034441
  C   2.94680063830119      1.97575162989586      0.33169702586661
  H   2.09132889807898      1.87012955343135      2.97326225223836
  H   -0.16265190637124      0.33590446981944      1.02495889973479
  H   1.41493939519540      3.74520930146616      2.05377280470198
  H   -0.31967904524963      5.07304061570433      0.94228862818667
  H   -0.81816262025192      3.58405995249725      0.15136712904374
  H   0.62191175862057      5.33111055223909     -1.12570376877633
  H   1.98853974688496      4.77602775882483     -0.20789988203601
  H   0.96625398637041      3.73612859891980     -2.65273378541565
  H   0.61829841770420      2.49258587784539     -1.45529159321387
  H   2.91014599845797      2.73501435284803     -2.80392386962224
  H   4.73490297942965     -1.94070038068844     -1.24789082603787
  H   2.85388604323020      2.98432560043379      0.69837050490121
