22
Coordinates from ORCA-job 2609optt
  Br  1.02215810594735      0.15713754101375      0.00434921732775
  C   2.90222439436565      0.13066839103900      0.16141422255507
  C   3.60377298545595      1.29172767728902      0.28078272004545
  C   3.25028744381200      2.69572341006790      0.10757476493959
  C   4.36283021908913      3.51400331534629     -0.02276097015312
  C   3.82396081758172      4.79028615117255     -0.24643001759544
  N   2.49414695056948      4.74219970073561     -0.27046066154404
  N   2.16317647324621      3.46698552251432     -0.05374569701664
  C   5.61723139054200      2.71972169923845      0.24271470799953
  C   6.74428550386458      2.42516471499652     -0.77522705369317
  N   7.04806958873333      0.98744916547789     -0.50455589822776
  C   5.86239056556574      0.40318738322225     -0.10557506019170
  S   5.35929069277213     -1.22892746749904     -0.29446650837219
  C   3.53044908814937     -1.16872774649387      0.04227712048733
  O   3.00271416364998     -2.24391784863629      0.04012808391396
  C   5.01341530700196      1.34265590018321      0.35324531792017
  H   4.31567614096380      5.73712197087045     -0.39910231251467
  H   1.19496317402947      3.19001847571008     -0.03684935615306
  H   6.06928160818061      3.02986381129726      1.19076393920899
  H   7.63380491105692      3.03186572196275     -0.62698031223741
  H   6.38050502816048      2.54420204921569     -1.80012012786148
  H   7.62136544726208      0.49259046127621     -1.17097611883716
