22
Coordinates from ORCA-job 26095optt
  C   1.06825063090206     -0.07000410744612      0.08321522270709
  C   2.54909825471454      0.06888774980481      0.08704732662651
  N   3.32712879408597     -0.96618130423405      0.12061091681219
  O   4.64235109639479     -0.53337148116675      0.10945827906444
  C   4.64300538628494      0.80566351462995      0.06839912498945
  C   3.34063157336466      1.27172093271183      0.05405380994022
  C   3.09249498848893      2.64644378609930     -0.00065106556214
  C   1.74685014395242      3.13131438809787     -0.05222259449571
  N   0.65536953604292      3.48217927148535     -0.08876192000473
  C   4.18444590628452      3.50849590224972     -0.01597047211330
  Cl  3.86723629697518      5.20247454877821     -0.14215945651949
  C   5.50277302876245      3.01341489971375      0.01352538257290
  C   5.74193870742875      1.64852774277552      0.03555461480596
  C   6.75295365395859      3.86763159465046     -0.01218865825664
  N   6.80108762110957      4.90498406962313      0.85363538720542
  O   7.68163819935680      3.55143581190332     -0.71976854962462
  H   0.80048001182107     -1.12281390525303      0.12944643910710
  H   0.64789955834741      0.37167983296424     -0.82067686050193
  H   0.63346651971052      0.45428001823840      0.93433869034662
  H   6.75861665060971      1.28148916475082      0.01732567111499
  H   5.98573680095855      5.22741133274100      1.34368583715898
  H   7.60854664044559      5.50533623688223      0.80910287462669
