27
Coordinates from ORCA-job 26090optt
  C   2.41954715500762     -0.07283672638309     -0.89373723849022
  C   3.25400928288090     -0.07069271248989      0.36558252337238
  C   2.77449362356081     -1.04015325507488      1.42555516959054
  C   3.45515171486740     -0.98344849571205      2.56374652372012
  C   4.57739751651586      0.02808503969607      2.55293825179022
  C   5.52354076822039     -0.27002351042823      1.35759833444588
  N   5.46024941210751     -1.49649994522772      0.59280335902548
  C   4.75838216225894     -0.32935096899163      0.09902857140940
  C   3.95327912825674      1.35904758614182      2.19076118392585
  C   4.02392110379635      2.52601943590657      2.86379029256879
  C   3.36047501617785      3.70781103151238      2.34503198725120
  N   3.34012465452941      4.88539186420469      2.83877319857988
  C   2.63609949769268      3.42026486955534      1.08762087612273
  Cl  1.77245217190425      4.70822071937756      0.34879550996984
  N   2.59678505578909      2.28921349593869      0.48693584444505
  N   3.26128586747708      1.26931483429553      1.02189586540129
  H   2.47722218464073     -1.06617907950071     -1.33984319168340
  H   2.79065088140146      0.65891355352206     -1.60870661948695
  H   1.37964797389628      0.16370076246276     -0.67404608268879
  H   1.94839952127979     -1.71057437928006      1.22660410458801
  H   3.25288313615578     -1.59515318661344      3.43200343207982
  H   5.11293577943138      0.09368094753602      3.49583441083788
  H   6.49321559184611      0.20696548477826      1.41310672715550
  H   4.83046813193334     -2.17633265440874      1.00807067065148
  H   5.13284319375324      0.09619181075895     -0.82454533956430
  H   4.57475821797522      2.58735738408060      3.79303024095115
  H   3.88078125664377      4.92106609434313      3.70137139403118
