25
Coordinates from ORCA-job 26101optt
  C   0.99997501189077      0.14337765233647     -0.05911501324122
  C   2.47426953864137     -0.07584575736649     -0.10623176673502
  C   3.26692431714959     -1.22033595952240     -0.04299483896271
  C   4.64654538445417     -0.81148945388456     -0.13135099227543
  C   4.64751447527996      0.56341445999332     -0.24614223864651
  N   3.34155739537318      0.95957513219652     -0.22736006129291
  C   5.68904176230833     -1.77407760057136     -0.07707871018743
  C   5.37407594849178     -3.08781095752213      0.05647773670513
  C   6.43331812581344     -4.13274967349660      0.11403742072685
  C   7.23346544346293     -4.46247862073460     -1.07474251328185
  O   7.76465691651752     -3.68708544337335     -0.01483134780623
  C   3.99629425820787     -3.50804498700611      0.14191239539371
  C   3.71657909103916     -4.90521927103474      0.27324935226462
  N   3.53675367803542     -6.03448593024177      0.37879591181773
  C   2.97380992540964     -2.59590933913427      0.09041027895646
  Cl  1.33451368567627     -3.11754652650983      0.19110157866291
  H   0.57432231081461     -0.22709470186443      0.87343937551846
  H   0.49512438717887     -0.37105953477697     -0.87649780820755
  H   0.77482289216347      1.20771128452080     -0.13632943669430
  H   5.45161039401212      1.27190696663754     -0.33492975797453
  H   3.04201458356391      1.91904445619125     -0.29510723753952
  H   6.72954050379100     -1.48093921214701     -0.12857914285764
  H   6.28661645467187     -4.91570897487237      0.85243356031729
  H   7.03949684719143     -3.91385326308514     -1.98982727674863
  H   7.65515666886129     -5.45529474473175     -1.17973946791167
