29
Coordinates from ORCA-job 26107optt
  C   0.92368540876486      0.13636200358113      0.00894198198581
  C   2.43346604434541      0.05347468553858      0.05082143109850
  C   3.21903405631946      1.16770514680737      0.77386750502662
  C   4.19286008382701      0.10006710671292      1.30838915888184
  C   3.09072611840093     -0.96229758743096      1.01193555474147
  N   5.34680806138948     -0.01979733134118      0.44620977407377
  C   6.25100353057037     -0.88568489149853      0.65222124323078
  S   7.56467628667548     -0.79857898563391     -0.55823280278919
  C   8.76024466979457     -1.94881939532862     -0.03203729258485
  Cl  10.15391919413270     -1.95156883306123     -1.05281817480703
  C   8.66725101897243     -2.75849280773380      1.02535536987885
  C   7.49083001944419     -2.75576810139918      1.85258551854301
  C   6.39984108836239     -1.91091833575996      1.66484209257932
  N   5.47954627629364     -2.22270379293538      2.63630120051665
  C   5.95363925431405     -3.22883355141788      3.41512911591816
  C   7.20021381422866     -3.58205896108961      2.96520918331988
  H   0.59410938435894      0.97555798869735     -0.60655637221755
  H   0.51937969492139      0.27983272970399      1.01420601973936
  H   0.48604153800526     -0.77482458959862     -0.40338429464031
  H   2.84314966052917     -0.08664039459037     -0.95036006992910
  H   2.62527189267109      1.60069543684243      1.58131637924858
  H   3.66795239889631      1.95638195336289      0.17367358588178
  H   4.49875575026293      0.22626505084831      2.35263468814784
  H   2.45459574577599     -1.13338445758734      1.88582592952158
  H   3.42412380528775     -1.91752755239337      0.60487455155755
  H   9.48146605736354     -3.43316728940078      1.25309406432130
  H   4.56856864010145     -1.80720067458561      2.72028128138928
  H   5.36733857697537     -3.61877616981069      4.22980848674370
  H   7.83450192901513     -4.34729839949794      3.37986489062239
