21
Coordinates from ORCA-job 2610optt
  Br  1.39605902771099      1.18524439687883     -0.09233072866328
  C   3.07062422353312      0.37206353573842     -0.08799892209442
  C   3.30363983331951     -0.95045281570448     -0.09070949914488
  C   4.69937703009347     -1.20089733685007     -0.08696596605801
  C   5.11808710924474     -2.49590527781097     -0.09062371433922
  C   6.53979712112253     -2.32164122526116     -0.08722507235993
  N   6.89186481087381     -1.03975342084914     -0.08214035283097
  N   5.71134188702066     -0.35283229418778     -0.08207280963690
  C   5.45275514514729      1.01780604710391     -0.07998365746271
  N   6.24286970411433      1.97677704399827     -0.07696377195271
  O   4.08018321288641      1.28097158319820     -0.08160935763113
  C   3.83471968079493     -3.20062404722128     -0.09706449852567
  C   2.77858363573191     -2.31172675269685     -0.09716471272721
  C   1.57825439277606     -3.13939248410476     -0.10302648447041
  N   0.32930472339509     -2.93251763198134     -0.10535830493648
  C   2.16011776340660     -4.53844221106612     -0.10571765522450
  N   3.43827220372547     -4.56310036390092     -0.10253032543365
  H   7.32166512531746     -3.06354775292175     -0.08834405584446
  H   7.20558697237258      1.64688055867736     -0.07582596012262
  H   0.11829474597150     -1.93254560514648     -0.10259432243099
  H   1.54660165144152     -5.43136394589188     -0.10974982810985
