27
Coordinates from ORCA-job 26114optt
  C   0.95979471966444     -0.03917308344001     -0.39470541421642
  C   2.44503050550474      0.08285825335509     -0.01324163284934
  C   2.55930414754641      1.24625508687854      0.99524845162897
  C   3.88203956282331      1.31436825005017      1.68804343897722
  C   4.54064909275413      0.19333734068076      1.95559609698357
  C   3.99129235379346     -1.09663301714677      1.52876844918801
  C   3.02910662300882     -1.20072111635284      0.58717187821246
  C   2.69520982963323     -2.50082173771214     -0.00559986113410
  N   2.36057686173675     -2.48518634896135     -1.24058606830921
  O   2.14574196579486     -3.73892436305945     -1.79514509337608
  C   2.78299122008000     -3.70523820418570      0.85583549754100
  N   1.83093699856751     -4.68728057578157      0.69044587067328
  C   3.71747149917800     -3.74296943707540      1.82608453362425
  Cl  3.91237726153283     -5.15236249763373      2.80811266854280
  S   4.76244941181073     -2.44281219410770      2.30005073521424
  C   3.22898494818538      0.43216999479143     -1.21756635610443
  N   3.83412304616544      0.74451304396561     -2.14005121005669
  H   0.40689631268515     -0.42859050752562      0.46100269250066
  H   0.81276768083037     -0.69775805927749     -1.24254731767789
  H   0.57427117151569      0.95032365424198     -0.64061704291094
  H   1.77654490287972      1.09734984514740      1.74912669376741
  H   2.33347469612981      2.17908180360013      0.47947098293183
  H   4.26323632003888      2.27360334739472      2.01308299155847
  H   5.47671423305693      0.19405882177268      2.50038432805964
  H   1.95943311232090     -3.53820221091949     -2.71718826450671
  H   1.52061739496080     -4.82816315810468     -0.25797871101709
  H   1.99296412780165     -5.53708293059454      1.20780166275507
