32
Coordinates from ORCA-job 26112optt
  C   4.33052416076160     -2.23482453949725      1.46855301470319
  C   3.95323239486992     -1.02469814182233      0.60943904063168
  C   4.33186798901051      0.26546336247713      1.26201187493532
  C   3.53882278689574      1.19215177449835      1.80746392033157
  C   4.32270370047284      2.35965277255577      2.35980448716431
  C   4.04929771550464      3.60035553733842      1.48883027803859
  N   4.02281996266803      2.56114973611672      3.77805670801470
  C   5.76551182045945      1.90289170028141      2.13027420462857
  C   5.71524833874732      0.73285465069841      1.45787553282249
  S   7.16870960190728     -0.08286801549622      1.00238287662971
  O   7.09162225427798     -0.65133835150377     -0.30925145670394
  O   7.63627474606326     -0.90117070036181      2.07468352579880
  N   8.12185266343242      1.27483524004281      0.86862592355463
  C   8.08557390389689      2.29250451842295      1.79898799324913
  Cl  9.59560253227932      3.11143633266018      1.96984003546888
  C   6.96517418572100      2.63437425313243      2.47221749292999
  C   6.93304058743924      3.68997574592352      3.53990204066901
  H   4.02861362842810     -3.15841108068912      0.97524930338781
  H   3.83657870042988     -2.18247878169208      2.43931132015536
  H   5.40595032869158     -2.28456775321343      1.64177906848147
  H   2.87755374183809     -1.01725323585217      0.42756484912302
  H   4.45296029543102     -1.09830009753447     -0.35911195128933
  H   2.45644437762188      1.16596539387055      1.82807188693592
  H   2.99337306520481      3.86595468490246      1.55720323745146
  H   4.29441689652956      3.40158339600414      0.44482499569248
  H   4.64065275228910      4.45217710335048      1.82731301893027
  H   3.03099096138527      2.43997230700519      3.94344864190722
  H   4.26443958597377      3.50057572764722      4.07240882933303
  H   8.92240272891520      1.18343072881546      0.25802928134186
  H   7.92064246819246      4.10640040903984      3.71626188774127
  H   6.56498751579285      3.26286096522589      4.47345366995153
  H   6.27111360886880      4.51334435765328      3.26449446798994
