20
Coordinates from ORCA-job 2613optt
  Br  1.10852284385915     -0.26635777112635     -0.90071640699184
  C   2.75132686034784     -0.10917721618008      0.12561650937326
  C   3.43761135144628      1.20322386033990      0.05659021444824
  C   2.74597542696017      2.44978858077715      0.05067960863149
  C   1.44480074313153      2.90180653457091      0.13461279831475
  C   1.55582865023428      4.30356378664131      0.11550646983773
  N   2.82040100841127      4.71836299727807      0.02789805440184
  N   3.52777916215316      3.60137798622022     -0.00479144871463
  N   4.84837635725554      3.65184806408533     -0.07780561670150
  C   5.46148053881310      2.51479352519252     -0.06861992322555
  C   4.81240062756578      1.24006486730355      0.02042466953456
  N   5.66333830681136      0.16347681188518      0.01301930095295
  C   5.71374795890839     -1.02164233316438      0.23478274769126
  O   5.92188608705509     -2.14260490239129      0.40922215643815
  O   3.16693253024648     -1.05610354909751      0.69958724420748
  C   0.48682436569809      5.24222797166486      0.18429855711606
  C   -0.42883028082043      6.01095281187827      0.24554460558559
  H   0.54135474427451      2.32584320171774      0.19786349295542
  H   6.54085296132904      2.54746415423352     -0.12781945490493
  H   -1.23661024368069      6.70109061817104      0.30110642104967
