26
Coordinates from ORCA-job 26139optt
  C   2.84111896995564      1.95808874239938     -1.63726993067905
  C   2.37333969629134      1.16763952128433     -0.44984342848481
  O   1.27679899936879      0.68093375436926     -0.36972878777920
  C   3.33710476880516      1.01688296009345      0.73057684991627
  N   4.73906761397351      1.04175697352203      0.36532390144104
  C   5.24816102076172     -0.03144891476406     -0.35627275557506
  N   4.61707719412412     -0.98113130264946     -0.90119504811705
  C   5.63428020657499      1.83341865215722      1.11138299736339
  C   5.55694874464576      1.99224305073338      2.45679756542905
  S   6.77784634393307      3.00502676083499      3.12763548164608
  C   7.47431052778268      3.23517973705643      1.56763224123615
  C   6.74514715121284      2.57490760205279      0.55902369909099
  C   7.22401434507709      2.84148334084471     -0.73284782030892
  Cl  6.40339049829915      2.25956646939216     -2.13730783276826
  N   8.28876958260564      3.56623510914805     -0.95234084083852
  C   8.92054428872745      4.09036949396050      0.10719952729982
  N   8.55553414512269      3.98156826388753      1.36762861113455
  H   1.98923931847549      2.20704760236341     -2.26400141124681
  H   3.55087840380326      1.34916577826329     -2.20336346374321
  H   3.37642382065306      2.85573756225287     -1.32440860788766
  H   3.06380433931475      0.10554170928957      1.27075207835277
  H   3.14058855431819      1.86949480313734      1.38266729358398
  H   6.33285283592993     -0.00569143879294     -0.43877942510022
  H   3.60785099451428     -0.94782970470296     -0.76479047881882
  H   4.83087196644498      1.53101463802306      3.10826185190319
  H   9.80803566928433      4.67279883584363     -0.10673226704967
