27
Coordinates from ORCA-job 26135optt
  C   2.68947112140423      1.73998094784617     -0.66960136502967
  C   2.43550212256453      0.34487097857712     -0.09235451340787
  C   2.71055568307852     -0.70355214862705     -1.09279388712560
  N   2.95569303891736     -1.50462110515708     -1.87447574741791
  N   3.12599846964705      0.09283706452119      1.17145768079618
  C   2.32696363955674      0.36908497567597      2.36146307046105
  C   4.49162883261485      0.26616029299187      1.27240902597793
  N   5.22160543187040     -0.02840448692439      0.17159986266061
  N   4.93187172757927      0.70908485896190      2.41353906302363
  C   6.22344161029487      0.86997962723952      2.78070098123405
  C   6.57017456210711      1.19765315621295      4.04758746686106
  Cl  5.39832145779456      1.37420445376990      5.27677659378047
  C   7.95868253469084      1.42454340556188      4.39977114034280
  N   8.48281138942944      1.74331919388505      5.49481818327645
  O   8.83938066955056      1.26645100236984      3.34046165027969
  N   8.45168445418782      0.90601086149750      2.08188967244167
  N   7.26557554262814      0.72797526454500      1.82828462345323
  H   2.07922624414558      1.89733208566112     -1.55769650834342
  H   3.73758691976220      1.86243474711408     -0.93419074117379
  H   2.42164588080174      2.48307902467845      0.08095244441734
  H   1.37208424525702      0.25152235631646      0.13033438952853
  H   1.34863450739845     -0.08986423530658      2.23111974309621
  H   2.21231504314245      1.44261992246432      2.53624355671048
  H   2.81466186498944     -0.06029635214220      3.22967531171105
  H   4.86224125434072     -0.66173090464294     -0.52416475640608
  H   6.22266911770987      0.06436605189930      0.26064356381872
  H   7.77457263453616      1.84095896101060      6.21654949503314
