30
Coordinates from ORCA-job 26136optt
  C   3.52662884688110     -1.70840761064124      2.97434455915779
  C   3.74315372398965     -0.77997938992259      1.80238867399794
  C   3.27783021111546     -0.98408512507979      0.49180185278170
  C   3.55576608901748      0.05285389367548     -0.41730260902915
  Cl  2.97078313472885     -0.04553974000121     -2.06445681797470
  N   4.22838701861758      1.14925087552235     -0.16904888354819
  C   4.68488636356085      1.31431501684342      1.06809688691164
  C   4.45653426953580      0.39131813917763      2.06481524293670
  C   2.51966551702928     -2.21293944513409     -0.02020171439250
  C   3.41253273244754     -3.02605339615686     -0.99114112152004
  C   4.16572144891569     -3.96509718293045     -0.04297946847137
  C   3.12890223745263     -4.28587871919275      1.01346410407259
  N   2.98669519379170     -5.28062019017296      1.78049587177555
  N   2.24255281146293     -3.21465746989342      1.01505986786513
  C   0.86075458660395     -3.32660745245134      1.17203819380476
  N   0.15735407306164     -2.59810047367925      0.41719692257557
  C   1.06322530079945     -1.85488472580581     -0.46422036185118
  H   3.99737076113818     -2.68087118695472      2.83426562588693
  H   2.46902561304131     -1.89034465243471      3.15388580390347
  H   3.95292606564545     -1.25566154061298      3.86762377565082
  H   5.24281718389161      2.22322460398821      1.25892699376652
  H   4.83077246347835      0.57603107626140      3.06296780716288
  H   4.07142161243132     -2.41045067858177     -1.59475759405846
  H   2.76911787857219     -3.60406009249097     -1.65784545682521
  H   5.00277071942336     -3.44208911670482      0.42980192258309
  H   4.54887956340449     -4.86917932875146     -0.51190087744293
  H   3.71379058647047     -5.97100557778890      1.61564854560936
  H   0.47665337533631     -4.03111396489262      1.89874226573155
  H   0.86891020429351     -0.78838930771238     -0.36879828750783
  H   0.86417041386182     -2.13197723748135     -1.50091172355243
