26
Coordinates from ORCA-job 26143optt
  C   1.53590879478907      0.79252105269117      0.38508624699034
  C   2.36571346347127     -0.46331694335649      0.12658111376624
  C   3.00521706316135     -0.42061695042490     -1.25843727433910
  N   3.44669302179720     -0.58892356061609      1.11935983824873
  C   3.06459257486969     -0.55081281629280      2.48216365596189
  C   2.70234282449632     -1.65253094131862      3.17074045082407
  N   2.30861452110654     -1.57177399566571      4.48914049860536
  S   1.48757717163369     -0.24097941504437      5.01179657263931
  O   0.27308184020018     -0.10426969043151      4.28317036742709
  O   1.49156773138173     -0.27398136830174      6.43358721316260
  C   2.60102830164739      0.96929373841145      4.37024971720875
  Cl  2.77553799375058      2.38608854453922      5.28154246056384
  C   3.15568570656086      0.73702280905656      3.16194845307735
  C   3.90848443976116      1.78026297644861      2.52405767826960
  N   4.48393803920933      2.63043341160547      2.01321272011551
  C   1.48553742595622     -1.65760468438634      0.22459041263319
  N   0.86341341275646     -2.61289859677174      0.34908628430209
  H   2.19144650679366      1.66298755315614      0.35146429521926
  H   1.03430312577699      0.74856064847605      1.35257805041840
  H   0.77245540531661      0.89088559529572     -0.38536521381955
  H   3.65102342202229      0.45515651487395     -1.31092556804247
  H   2.23875207333380     -0.35595787868448     -2.02906882247093
  H   3.60188690415722     -1.31518178738382     -1.43947180941401
  H   4.01447688458458     -1.40218970582729      0.91355958718058
  H   2.71935470997807     -2.63593512920295      2.71863546680293
  H   2.25136664148767     -2.38823938084546      5.08171760466885
