23
Coordinates from ORCA-job 26146optt
  C   0.98690355198255     -0.03675969253826      0.07847267681193
  C   2.47869103580506     -0.04846983695114      0.07684270635567
  N   3.11124578358794     -1.16868326082295      0.07623246920358
  C   4.48476933257144     -1.12370274200295      0.07489077480106
  C   5.15163600021129      0.05602712164032      0.07429668963155
  N   4.53651215920891      1.25913591067954      0.07484046009570
  C   3.13777151350145      1.29717240318584      0.07602093661630
  N   2.43140380532877      2.35465618552552      0.07639648417227
  O   6.48992298320621     -0.08728778063031      0.07315064084295
  C   6.69322488948540     -1.44196687998636      0.07296083406306
  C   5.51763903069922     -2.13393777104548      0.07388546834412
  C   5.42828496127528     -3.59272642556152      0.07371853230645
  O   4.38215438043098     -4.19547724556688      0.07426980601340
  C   6.74621736450090     -4.28626496427931      0.07285998907015
  Cl  6.66539757413539     -6.00498131221394      0.07299187704173
  C   7.95519253509351     -3.70242542400591      0.07193454484124
  S   8.30478197309552     -2.01554249610312      0.07158013037186
  H   0.62453570690435     -1.06054495252794      0.07911138211602
  H   0.61419416701416      0.50163146581302     -0.79408951110819
  H   0.61615292835658      0.50201283600175      0.95164062878180
  H   5.06662045789988      2.11802087740608      0.07400283767767
  H   2.98888596604229      3.20665348947527      0.07567544603136
  H   8.85286189966288     -4.30653950549128      0.07131419591832
