21
Coordinates from ORCA-job 2614optt
  Br  0.96190305814696      0.50920689695987      0.01681511578404
  C   2.82299129193673      0.26392680955444      0.02404001133550
  C   3.36392726883100     -0.96579867504340      0.02717407849453
  C   2.81556135260037     -2.30466677351174      0.02725878402089
  C   1.72491281031137     -3.07097991553476      0.02583815020185
  C   2.24062214158197     -4.48736715118798      0.02898679613467
  N   1.60165218713618     -5.57241872918568      0.02907631845261
  N   3.68261985791383     -4.47593316888632      0.03225589969660
  C   3.97648807969803     -3.23512466441536      0.03135758583243
  C   5.19772393328799     -2.43476153024762      0.03367993107510
  C   4.82774145426110     -1.13193485472174      0.03148716737573
  C   5.73169369909886      0.04439791200554      0.03278088790219
  O   6.93350853008275     -0.04873696924607      0.03522430894502
  C   5.02140523011588      1.35371005330275      0.03059511121634
  C   3.67132801292831      1.43593216099834      0.02618155763723
  C   5.82118390703781      2.53997470287649      0.03269094562393
  N   6.44872415920372      3.50019029996833      0.03375314163394
  H   0.67963354695275     -2.80356553603606      0.02331033627047
  H   0.59612432746187     -5.39929663605830      0.02655992812028
  H   6.21375923769846     -2.80038846454778      0.03667176923040
  H   3.19549591371401      2.40863423295705      0.02426217501626
