26
Coordinates from ORCA-job 26147optt
  C   1.05293104472523      0.10620700672838     -0.11148667854652
  C   2.55143862887555      0.09974287814903      0.02690948458572
  C   3.29924288721695      1.27150399782136      0.07384986388223
  Cl  2.53183349403037      2.83045938512683     -0.02980318011705
  C   4.67723230455608      1.27971978181937      0.20154242976483
  C   5.38928568740067      0.08701505906709      0.29964849122430
  N   6.76624406428828      0.10725353199078      0.46719955445708
  C   7.55691815497685      1.32896330800105      0.25138705107024
  C   8.67351024504018      0.42670837413632     -0.26376923049295
  O   9.81421919395185      0.58835994711898     -0.55003827886790
  C   7.72753402771604     -0.76855514446368     -0.24168271085067
  C   4.64123245037098     -1.09918635541891      0.28902953849121
  Cl  5.45701184799933     -2.61211641955787      0.54986628190037
  C   3.25738623308561     -1.11069268377896      0.13534354568839
  C   2.53404915040712     -2.43002164266583      0.12347690659725
  H   0.66557516530323      1.11857394429248     -0.15688881434184
  H   0.58048215127851     -0.39759980960867      0.73314850050343
  H   0.74156715504309     -0.41246679490980     -1.01991117335744
  H   5.19005405044424      2.22906400930938      0.24303194588930
  H   7.75729734706570      1.92512215211910      1.14192122010230
  H   7.17965494198713      1.97282305066505     -0.55302825483865
  H   8.06690102649524     -1.63885007936098      0.31588984845207
  H   7.40354472049007     -1.07083565543077     -1.24305917174802
  H   2.97322773706846     -3.10202434307271     -0.61426235217376
  H   1.47909950509812     -2.31386635129928     -0.10058561639439
  H   2.62752678508508     -2.92330114677773      1.09327079912046
