31
Coordinates from ORCA-job 26159optt
  C   1.71720410588696     -1.00776765414198      1.06994074207008
  C   2.64094671266366     -0.37473505309177      0.06221037669741
  C   3.17020385446237     -1.11984867083908     -0.90696937686202
  C   4.10284642658447     -0.76668247034884     -2.03926400258873
  C   5.08719438383852      0.35553195271343     -1.82239421114212
  C   4.71616709072065      1.57476631812788     -1.40418446604222
  C   3.28423072990651      1.84449708551717     -1.03361497495097
  C   2.86187199724450      1.11293051958565      0.24988838019380
  C   3.85164324205900      1.43836292580650      1.37846008922437
  O   3.42537654494156      1.02338923583303      2.65672625417353
  N   5.58800114948842      2.62600113564790     -1.24610824644935
  C   6.92346952315531      2.55776895380546     -1.52671957973734
  C   7.54582542614983      1.45538878582729     -1.95672349643628
  Cl  9.22382945340333      1.44292647299764     -2.30560684916119
  S   6.73221435484392     -0.07764802478343     -2.21270397934938
  O   7.22389125592609     -1.03725041496372     -1.26174701682782
  O   6.81075747380518     -0.42771791015540     -3.60491926720573
  H   1.50345351583394     -2.04369726235051      0.81189933007746
  H   0.76972395518259     -0.46320122651258      1.11774740749450
  H   2.15724995646443     -0.97910002817107      2.06713067158492
  H   2.87578819673188     -2.16498563076927     -0.91935416583096
  H   3.51285775109395     -0.54628206528432     -2.93791813136551
  H   4.66590860915819     -1.66650656907070     -2.29214811594923
  H   2.63489685892784      1.53478367229185     -1.85445111759866
  H   3.14063175649195      2.91977673807407     -0.89984342777544
  H   1.89374793562519      1.53862738706519      0.54491719636633
  H   4.05044132251516      2.51938072374193      1.37459568989230
  H   4.79678007972494      0.92564607483868      1.19454112710374
  H   2.61661256838955      1.48941219523447      2.88936191528996
  H   5.21682154552542      3.50351176111202     -0.92659809925021
  H   7.48241222325458      3.47272104226250     -1.38415065564522
