30
Coordinates from ORCA-job 26157optt
  C   0.93862248975615      0.02333733454041      0.57887689575377
  C   2.33953209573037      0.21708992876295      0.09271774958421
  C   2.88054659107780      1.39450592221797     -0.29088553496624
  S   4.52961188922475      1.28474805817048     -0.80693662665453
  C   4.53274086183578     -0.41747035193947     -0.49899035441171
  C   3.28650011814166     -0.86741945675664     -0.02384261708975
  C   3.08154300365469     -2.21990485958386      0.27379715297312
  C   4.12928332360706     -3.10380449450109      0.09185844465476
  Cl  3.90569357731386     -4.79365920088828      0.41940613113634
  C   5.37212615566815     -2.66945150801779     -0.34627623523959
  C   5.57792227735639     -1.31899087394164     -0.64804841402400
  N   6.88839164775105     -1.08391515234066     -1.10382968844629
  C   7.63466696803016     -2.22559272066022     -0.57327692892308
  C   8.88574780535567     -2.84757474718121     -1.15512955633395
  N   8.77011895798211     -4.24967904783643     -0.67617701121651
  C   7.40889815753678     -4.51277343078321     -0.13062772518434
  C   6.63802818624635     -3.36410250851084     -0.74678141729019
  H   0.38889335111668      0.96294213482180      0.57947145218793
  H   0.93431269559053     -0.37816217111696      1.59445143397064
  H   0.40338455647845     -0.68670718290711     -0.05524939587222
  H   2.38766230770549      2.35469403762825     -0.30802893652094
  H   2.12677670605754     -2.57304244408328      0.63874895965650
  H   7.25212089636440     -0.16547774216194     -0.88496157964883
  H   7.78916049263939     -2.09162222827442      0.50859635832895
  H   9.81391549704208     -2.39601758178803     -0.80591323426177
  H   8.86909932626204     -2.80789160855967     -2.24730757669344
  H   9.49093035402430     -4.47989195877788     -0.00959038906594
  H   7.37249220383414     -4.46667455689120      0.96218092156670
  H   7.05308477955180     -5.49090142216584     -0.44953026956120
  H   6.56819272706433     -3.56059016647416     -1.82672200840839
