27
Coordinates from ORCA-job 26168optt
  C   1.01694103793896      0.24628649645609     -0.45546121740797
  C   2.52400426278045      0.18138857689483     -0.26509295370021
  O   3.18597734268641     -0.08405618616207     -1.48375994561966
  C   3.05961647067575      1.45695463403751      0.39002266956495
  C   2.64196483343870      1.61480902117908      1.83594177157852
  O   4.49983355727008      1.39162340206733      0.38111578077811
  C   5.11894102768875      1.87166258307072     -0.68284890980420
  O   4.60672185415608      2.44683056185293     -1.60528550943129
  C   6.60245598904033      1.63123803986736     -0.61999226391329
  N   7.17120172920076      1.49637631484371      0.57432436129241
  C   8.47411841026218      1.32260693796549      0.62810443540043
  C   9.23094263760025      1.27000266065163     -0.54838539344933
  Cl  10.93229128247083      1.04589598976724     -0.44611292984240
  N   8.69125113897304      1.37817210779732     -1.73417578422954
  C   7.36978473267377      1.56476621138155     -1.78374767313897
  C   6.80528026674215      1.65159379302666     -3.10932240198501
  N   6.40792276745373      1.68905596123121     -4.18256996602166
  H   0.68501966244421     -0.64637885439284     -0.98318893271906
  H   0.74654962330986      1.12009166103454     -1.05394431600201
  H   0.48830116445019      0.30178750809027      0.49589201465640
  H   2.78320515332136     -0.66169113676512      0.38130332940907
  H   3.09094823100643      0.67323065600145     -2.07507690288027
  H   2.75854763856850      2.32449208938218     -0.20201484225914
  H   2.93132762746475      0.73623236918993      2.41401324448940
  H   1.56331556251953      1.74422370226528      1.90796739635888
  H   3.12182717573256      2.48958256627688      2.27183275558080
  H   8.94270882013021      1.21622233298880      1.59846218329506
