31
Coordinates from ORCA-job 26161optt
  C   2.41363738781320     -1.21749445484042      0.73217537395984
  C   2.81940516570930     -0.06416246478706     -0.17291918237761
  N   2.81672783307498      1.18439662377905      0.55760743085089
  C   2.76476836736036      2.40954745591664     -0.03174472073338
  C   2.73905113267071      2.60482663057595     -1.38007518357178
  C   2.64958139242353      3.89649092713696     -1.96870526834205
  Cl  2.60561109078089      3.84895775141190     -3.70588604754012
  C   2.58949362773303      5.11229247749781     -1.35915459062935
  C   2.44231034745313      6.41862224270595     -2.09569057246817
  C   0.98369951959226      6.73345128455702     -2.45122454999934
  C   0.09797446341124      6.91397963621660     -1.22834414835632
  O   -1.25492931236894      7.14464175426754     -1.58112000542919
  C   2.62412272918380      5.22313054736437      0.08638373537309
  O   2.57764206389511      6.25246975137906      0.71409576081886
  S   2.72845747871149      3.72975290841863      1.09422272600338
  C   4.19719782714160     -0.32235767555417     -0.78367926866777
  O   4.51635279986950     -1.38047315295746     -1.24018481897390
  H   1.39017988335395     -1.08640461191495      1.08043252960339
  H   3.07959884854895     -1.28066978900726      1.59501094392912
  H   2.48930511237695     -2.15049003713628      0.17839216899140
  H   2.10359644537451      0.00185679848158     -1.00062392107503
  H   2.78465123761176      1.13683753569996      1.56311252955575
  H   2.77771339473448      1.76061909720399     -2.05125273761710
  H   3.03980728152241      6.39259471329185     -3.00604070495418
  H   2.83890560152636      7.20988242417080     -1.45903731590962
  H   0.56763813250212      5.93678208634475     -3.07225726695136
  H   0.96131487049144      7.65206721590623     -3.04652293664464
  H   0.48480161403423      7.71710008334908     -0.59224725426983
  H   0.09055448136804      6.00482512258227     -0.62531102074616
  H   -1.31257712669817      7.96944576247365     -2.07162892512125
  H   4.89240630879772      0.53948135546588     -0.76078275870754
