25
Coordinates from ORCA-job 26164optt
  C   5.60592524015206     -1.21658870472698      0.58013104084906
  C   4.35796015313692     -0.47368493383440      0.23827748500458
  C   4.06738668176951      0.86269030611576      0.35872351195411
  N   2.80345065843419      1.04140254273180     -0.06924496946805
  N   2.22709120930219     -0.10763670690020     -0.47199231624610
  C   3.16049236966646     -1.02352615742738     -0.28353629940045
  N   2.97107026792231     -2.35383710268892     -0.62771609963321
  C   1.71483089697331     -2.99199414862703     -0.56870213951569
  C   0.73412845701218     -2.71866804031302     -1.48960247763847
  N   0.83817552410737     -1.79392174959686     -2.46748566962824
  O   -0.42562446631773     -3.37482655803319     -1.50240589951172
  C   -0.73604750766976     -4.44717090207620     -0.64480707070585
  O   -1.77529563951858     -5.00502978904805     -0.83899328588883
  C   0.24852435145213     -4.71326338356102      0.36135848143558
  C   1.40419310908723     -4.00315778690102      0.37565128804410
  Cl  2.58933144540043     -4.36393192074359      1.58118607100757
  H   6.34578394766869     -0.55140928797330      1.02263578657585
  H   6.05672703330780     -1.67231356721400     -0.30457758045660
  H   5.40496063030724     -2.01492089958015      1.29902680039756
  H   4.66438312137038      1.68302520777598      0.72231782945996
  H   2.27104292440651      1.89184177363434     -0.09120200678849
  H   3.74387404675331     -2.94614011253278     -0.36605507464871
  H   1.39987975476106     -0.98173588804381     -2.24134711372224
  H   -0.01047689727757     -1.61966394368805     -2.98240578034318
  H   0.03623268779231     -5.49153824674790      1.07576548886745
