32
Coordinates from ORCA-job 26166optt
  C   1.01218231671164     -1.08940443583484     -0.17263615065923
  C   2.53090312033793     -1.00825906079224     -0.24453436328807
  C   3.17709744491668     -1.07945286491683      1.14283288911210
  C   4.67790065623377     -0.91334777976120      1.11134387182769
  C   5.16962538734892      0.35739118755025      1.15683943405244
  N   4.34826099488527      1.47623857855870      1.25541974901787
  S   6.84775362046900      0.78457232767048      1.11133842708145
  C   7.61058473433207     -0.75160946969708      1.22256183440129
  C   8.93341200281271     -1.01006998786059      1.30836492314314
  O   10.00116475241358     -0.16939038125960      1.39910186584565
  C   9.12933800364253     -2.43906001716915      1.22018398942258
  N   10.38959307743760     -2.98846858021969      1.35130634008262
  C   7.92142077006103     -3.07139468356916      1.07757515153683
  C   7.74154278745850     -4.55678845130695      1.03064536522271
  C   6.90927291250456     -2.03693439078149      1.07935783166867
  C   5.55426206261492     -2.05881060946824      1.00670283169597
  Cl  4.77094799514951     -3.59701694826735      0.76659728051858
  H   0.56010793817460     -1.03417039411123     -1.16298826881221
  H   0.60574764576993     -0.27260674828460      0.42817716384989
  H   0.69716085110917     -2.02646894703843      0.28981278386723
  H   2.83429989087745     -0.08384848152185     -0.74722385444376
  H   2.92503446212014     -1.82279777496996     -0.85634960686877
  H   2.91791152129395     -2.03163237592604      1.60391424841510
  H   2.74829611830481     -0.30756266910490      1.78788535728423
  H   3.47510761242253      1.41654396032796      0.75399894978510
  H   4.80566193347370      2.36455416454604      1.11822079092863
  H   9.72386953784076      0.69315450120214      1.72444495334299
  H   11.14604186201938     -2.34059807394457      1.19175433288358
  H   10.53274421098903     -3.88000273380004      0.90502749868137
  H   8.70176165837821     -5.05127439267822      1.18553851141487
  H   7.33752494554443     -4.90095313447508      0.07693568557532
  H   7.06946717235158     -4.91053133309624      1.81285018341412
