20
Coordinates from ORCA-job 2616optt
  Br  1.39508064841814     -0.42123610995300     -0.01215777122778
  C   3.21297689733453     -0.03876865034389     -0.01230251148163
  C   3.75635895289194      1.18985526352214     -0.01205219960397
  C   3.08240636932242      2.46956526391706     -0.01156198080013
  C   1.82310162538737      2.92714540702815     -0.01109121467409
  C   1.91704593996776      4.41748240601415     -0.01071507210788
  N   0.98190018999017      5.26648095770895     -0.01016071872568
  N   3.28025199536298      4.80469693663395     -0.01093375647957
  C   3.91935404350155      3.70783274874518     -0.01137320535650
  O   5.25627283465178      3.66191126163358     -0.01164884598824
  C   5.87017899285919      2.43224345096591     -0.01203562704743
  C   7.29333604126897      2.52294530104440     -0.01222302049780
  N   8.43683552035392      2.60965205889572     -0.01308988695204
  C   5.21811674573335      1.25458263017244     -0.01224018839656
  N   5.94857733221473      0.06748429755452     -0.01262675897619
  C   5.31702191405743     -1.01798487361411     -0.01283833211755
  O   3.95719213650565     -1.16847546614626     -0.01270048488271
  H   0.89463769529748      2.38081430839072     -0.01099982577496
  H   0.07586092801537      4.79816637219171     -0.01006391467938
  H   5.80549319686525     -1.98339356436132     -0.01318468422992
