29
Coordinates from ORCA-job 26167optt
  C   0.93478945557453     -0.01198947295018      0.07818822704913
  C   2.45655783472783      0.00193032762902      0.03776867096291
  C   2.96614686952458     -0.16965638359402      1.47482288259597
  N   4.39853325851460     -0.01406223997331      1.68461408739473
  C   5.42776244898004     -0.59556593215361      0.97433743732526
  N   5.53180728323781     -0.89328418517075     -0.25206168763090
  C   4.48738954013174     -0.56841382315283     -1.20752152974347
  C   3.07554189062061     -1.10623627121015     -0.87154711200566
  N   2.37287917832990     -1.36662965115490     -2.11519348157299
  C   4.22947788406226      0.92007549762812     -1.26816426680349
  C   4.91087983288867      1.91776686806787     -1.84409629627245
  Cl  6.35022263074869      1.70612370849858     -2.73413742329058
  O   4.52162566498847      3.19131269136959     -1.77548971945267
  C   3.35269902279499      3.59931331050352     -1.10581195293503
  O   3.09933577751662      4.76503785713091     -1.12184724470286
  C   2.59908762064068      2.53448740510979     -0.47299448354926
  C   3.03944732592286      1.26524075897315     -0.55290628676180
  H   0.56772903218050     -0.97808933665117      0.43253260436623
  H   0.51554811882129      0.17618864719501     -0.90903855869686
  H   0.55639623002999      0.75656527703405      0.75396753215611
  H   2.63131482761310     -1.15633470773590      1.81980703297787
  H   2.48064559890003      0.58182157493193      2.09970486916973
  H   4.63089241041976      0.12698606752102      2.65447432635521
  H   6.30547465122254     -0.76805709739492      1.59684577875454
  H   4.79784494646584     -0.96286938800112     -2.17366723376494
  H   3.14970706074564     -2.04807896661701     -0.32407201890968
  H   2.31201794492489     -0.53118788960645     -2.68958193458921
  H   1.42939164767393     -1.69553805456943     -1.95212102451299
  H   1.69885401179756      2.83314340834319      0.04518880608715
