28
Coordinates from ORCA-job 26165optt
  C   2.12621518835567      0.81914823227283      1.77757495638002
  C   2.10620288951382     -0.33315921755994      0.77945698517713
  N   2.87773035672522     -1.45221053027132      1.29606322658837
  C   4.11203711220369     -1.51456841503990      1.03741571671898
  N   4.82167714864553     -0.59890793686547      0.26365304670619
  C   6.05466488823985     -0.83148758321396      0.11596273333632
  Cl  7.04110932687657      0.21467138337262     -0.81936673418028
  O   6.77489515472369     -1.82653100270400      0.59884438377689
  N   6.16009748375470     -2.81465112942282      1.39308475442402
  C   4.90354472826903     -2.65134662245233      1.58849525771546
  N   4.17948720398330     -3.53174689173692      2.34244208187045
  C   4.61560200312655     -4.69628396992714      2.94284803671985
  O   5.74125831076631     -5.11154360532502      2.89260283017754
  C   3.51364453792088     -5.45612848098356      3.67310831596435
  N   2.29517854971981     -4.70161132649980      3.81776474671539
  C   1.79076687591969     -4.61083751232328      4.97535770900974
  N   0.67431068468337     -3.88271319339578      5.23784240908381
  H   1.48373205710750      1.62955857641542      1.43293544529319
  H   3.14021879888457      1.20486969347183      1.88671135899176
  H   1.77467570197735      0.48543870736784      2.75381990299570
  H   2.49430900379643      0.00522274909160     -0.18338976577182
  H   1.08426144429086     -0.68486520590975      0.63916825329049
  H   3.19527407445138     -3.29416330749067      2.44213427883389
  H   3.94793670873212     -5.79251516729813      4.62177499203427
  H   3.32978482416636     -6.34849410995195      3.06703832330484
  H   2.23095795513099     -5.08927182708244      5.85647473764448
  H   0.15008957236140     -3.52842508689530      4.45456090608653
  H   0.18933741567326     -4.00944721964256      6.10662111111236
