34
Coordinates from ORCA-job 26175optt
  C   2.77332422012320     -0.81055434474312      3.07760798192357
  C   2.38636693625341     -0.58489398592013      1.61700895665804
  N   0.94407576026000     -0.48608473846357      1.40370914059532
  C   3.02506744852107      0.67824505133079      1.04114994254212
  C   4.54577102763802      0.73847168152299      1.12471968439908
  C   5.10614243672804      1.96613591657838      0.42273463463150
  N   6.54664891674957      2.04198433469214      0.60858176848648
  C   6.95229425385591      2.80116049254949      1.78917039589077
  C   7.26182661963713      0.90982211467711      0.27528031703677
  C   8.61226080398034      0.91074102815390     -0.01053951530486
  Cl  9.50245360385066      2.39668444085361     -0.06764427476021
  N   9.28755704541542     -0.19779779033820     -0.32393234403777
  C   8.67217422065654     -1.33225675131729     -0.42102118765392
  C   7.25031218844092     -1.48112141740388     -0.21397281331725
  O   6.61264528188221     -2.51181454201219     -0.33561113605366
  N   6.60868683397290     -0.29425682541232      0.17905401463015
  C   5.17698089013233     -0.47119965517645      0.46388557636338
  H   2.24546530501141     -1.67629194804283      3.47953399941141
  H   2.50189281073959      0.06194140489700      3.67880989979591
  H   3.84326336791869     -0.98925924004538      3.20176885735134
  H   2.72550558199058     -1.44309993720562      1.02884515697703
  H   0.56021917977645      0.27610524462587      1.95405795342690
  H   0.47754556968179     -1.33249723920428      1.70913063792967
  H   2.61021975724016      1.54628286815949      1.56714389950779
  H   2.71537362656658      0.76714714510794     -0.00417107926721
  H   4.85696164536553      0.78139974373856      2.17365395500318
  H   4.67066777517952      2.88754577268533      0.80950253617836
  H   4.87715226095994      1.91637077548604     -0.64641562864512
  H   6.35469800668691      2.50604895606614      2.65947031189899
  H   6.80896876227098      3.86586552432768      1.60619961680425
  H   7.99834654412247      2.62719610761888      2.01605668852831
  H   9.23141271547369     -2.21923897038922     -0.69099311847611
  H   5.09274186966246     -1.37490828321180      1.06617781467376
  H   4.67897673325550     -0.68887293418504     -0.48595264312800
