29
Coordinates from ORCA-job 26174optt
  C   3.41793391789392      0.10818539408200      1.01457133291984
  C   2.42237145621485      0.04458449959194     -0.15073257883897
  O   2.51724823902682     -1.21357805267355     -0.80253943700552
  C   1.05417758884344      0.24259943243331      0.36416897277749
  C   -0.04708722377559      0.37783266792361      0.81440961210679
  C   2.77970995262915      1.11009861828501     -1.17826518979221
  C   2.37465206844699      2.42148171067882     -0.99809846344669
  C   2.76465074770333      3.39402748139668     -1.90673761278419
  Cl  2.19345500853781      5.00989313036779     -1.62403082430520
  C   3.56543426584973      3.10627278614552     -3.00880771980405
  C   3.95713691861161      4.16788229533452     -4.01175842968004
  O   3.06101285054227      4.23523706716986     -5.10141986674337
  C   3.95668703219368      1.76958405358428     -3.18214494760901
  C   4.75461278290982      1.35616776476476     -4.39377790976422
  O   4.02095679399462      1.52877506126978     -5.60409198581948
  C   3.56953682637726      0.79164471761451     -2.27498457607301
  H   3.18242803662967     -0.66389311142964      1.74850491988977
  H   3.36973169359204      1.08072049216141      1.50322936847457
  H   4.42301255907554     -0.05137397531558      0.62504729599941
  H   2.21382662686568     -1.89289094102407     -0.19150017532242
  H   -1.02884413786181      0.50286584516427      1.20574058420287
  H   1.74087833634383      2.69486084912557     -0.16431798631591
  H   4.97696445994865      3.98367609526741     -4.36212993891059
  H   3.94593480844015      5.14666045378250     -3.53941760506822
  H   3.17599081783693      3.41768581767372     -5.60316434750907
  H   5.06856436749976      0.31519845227232     -4.28721043153715
  H   5.65209854098538      1.96213276508998     -4.50935968456820
  H   3.23956841350531      0.96633919066173     -5.56327872299848
  H   3.87335625113903     -0.23567056139851     -2.42790365247469
