34
Coordinates from ORCA-job 26178optt
  C   0.87719079217565      2.13745097032236     -1.26258355948604
  C   2.39100302900726      2.00198825892473     -1.37961245572334
  C   2.92807162693928      0.56274040155107     -1.30423578759556
  C   2.51406441908849     -0.09700589810144      0.01288708302645
  C   2.42411536411454     -0.27228104537463     -2.48095635707034
  C   4.49488775904766      0.64376524436468     -1.32112209949403
  C   5.07771433732976     -0.69588687467121     -1.17902373218638
  N   5.51622456792367     -1.75180282256466     -1.09651578117947
  C   5.09413689036552      1.32692236751317     -2.53301362076323
  C   5.42356881146396      2.67245857738803     -2.48580464013209
  N   5.93096352821953      3.33801446967702     -3.52088263055642
  C   6.13421852002033      2.67377611614120     -4.63128015181124
  Cl  6.80433314139855      3.57362328797219     -5.96018615589180
  C   5.86236324442413      1.31609849704582     -4.81465259769574
  C   6.13986243182917      0.61767313200101     -6.12343820831789
  O   5.85988903025704     -0.76046072577716     -6.08380008196712
  C   5.33020835026142      0.64974023745126     -3.72571387655196
  H   0.58879810877788      3.18338508754437     -1.36696099147749
  H   0.50925217056374      1.79191391554535     -0.29670231343245
  H   0.36166952293161      1.57726876480331     -2.04328295050787
  H   2.86401724541238      2.59050580528590     -0.58547744228618
  H   2.70962479843064      2.44489394337812     -2.32597471258213
  H   1.43060024111391     -0.19866496521790      0.06428272212385
  H   2.84004368129167      0.49849204152979      0.86951521730803
  H   2.94256608320742     -1.09587368554991      0.10538092112359
  H   1.34798742430372     -0.42397602124679     -2.39980237120696
  H   2.89452669320586     -1.25782523859255     -2.49119736073762
  H   2.62266885946401      0.21777375912319     -3.43577002084202
  H   4.79004147761396      1.20976501000106     -0.43213765760820
  H   5.27580677254337      3.24543951784062     -1.57604279353198
  H   7.17305723509156      0.81369542806442     -6.42564035594047
  H   5.50172345532604      1.04565705254766     -6.89929360297602
  H   6.56700735756542     -1.21948055242559     -5.62056628964886
  H   5.10479302929075     -0.40678405649450     -3.81439534438097
