29
Coordinates from ORCA-job 26185optt
  C   3.43850680070440      1.18033861388772      0.47868080570583
  C   2.69964536022769     -0.09952496725125      0.09350876390599
  C   1.19736096001108      0.17189076081641      0.05540522311018
  C   3.20828569331829     -0.65730405542781     -1.26806104202191
  C   2.29554831918305     -1.72509778986167     -1.87880053314674
  C   2.23141530906538     -2.95744226317237     -0.98512985082243
  C   3.60266091646845     -3.62475099414193     -0.89132765867975
  C   4.74054540312326     -2.63534372971102     -0.83085919607830
  C   6.01597411162354     -3.01489876773323     -0.61934199319388
  Cl  6.47100566772035     -4.63673324020668     -0.32075141797535
  O   7.04755798738894     -2.19428781482885     -0.63301652097552
  C   6.87590984528454     -0.81951259175116     -0.94499130627575
  O   7.86533970236654     -0.16502689356751     -0.97905958075065
  N   5.59252003399212     -0.39396541477629     -1.16068106262179
  C   4.59461803780668     -1.22125511414352     -1.08825409410911
  H   3.08105916998751      1.54225155291035      1.44362002652247
  H   3.25176013679638      1.95976762987728     -0.26423335431063
  H   4.51504064771170      1.03833720207417      0.53978315604941
  H   2.89315161940467     -0.85084114193419      0.86719175756304
  H   0.95169297324303      0.83892723710279     -0.77528798495542
  H   0.88685509544236      0.66295638121804      0.97829399283629
  H   0.60724705454669     -0.73795235194231     -0.05177889345619
  H   3.29840681932993      0.19192511081803     -1.94960753654248
  H   2.68875036148940     -2.00993404618559     -2.85991428542034
  H   1.30298538113244     -1.31186326722410     -2.05194403220120
  H   1.50981708533199     -3.67768243560728     -1.37135835645880
  H   1.88585882393873     -2.67151573016703      0.01037059224357
  H   3.75525119679190     -4.25688144722438     -1.77156768262125
  H   3.64922948656894     -4.29158043184662     -0.02888793531929
