23
Coordinates from ORCA-job 26196optt
  Cl  1.23380860486147     -0.48254373165557      0.26504481212283
  C   2.88565000714299     -0.09188800131979      0.13007253924895
  C   3.34532064670141      1.05681305903689     -0.37155745334087
  C   4.77742834956940      1.26389781524415     -0.40920013480379
  N   5.42294702626146      2.28071776793627     -0.81743537555843
  C   5.53564196382896      0.10162961247467      0.10901370624515
  N   5.02045126834786     -0.97309514825243      0.55622607459836
  O   3.64880442830592     -1.09038646669901      0.59541882563215
  C   7.05841014414024      0.13154111049594      0.09631737062279
  C   7.66817146353964      1.31480863833074      0.90400700474164
  C   9.00394855255498      0.75646723812051      1.38514237727977
  C   8.77800013153059     -0.74342950190656      1.46558643823377
  O   9.45365054102684     -1.56350092214113      2.02670820324105
  N   7.63617012907835     -1.01041599872681      0.75302333901741
  C   7.50206099576748      0.19899074349267     -1.32092438801468
  N   7.89170771934453      0.20710116522932     -2.39773322546535
  H   2.65892427696010      1.80899717832101     -0.72999784483225
  H   4.79894179580929      3.00897827459985     -1.16151518806254
  H   7.00467408090372      1.51252233456876      1.74691078037666
  H   7.73446360263550      2.20877924218680      0.29544137648653
  H   9.33163021763371      1.14466398608187      2.34569932092978
  H   9.79918815556667      0.93023129361997      0.65645706702275
  H   7.31700589848875     -1.95287968903812      0.59029437427836
