28
Coordinates from ORCA-job 26190optt
  C   1.91446517164849     -0.17229102238424      1.81972818611641
  C   3.20566606344619      0.23371083045002      1.13044853543169
  N   4.33624233221591      0.00917090393677      2.01433296591791
  C   5.37944223593301      0.68602116324580      1.87403139674011
  O   5.53860662976506      1.55330836026524      0.77388827475845
  C   6.44088149086164      2.52227305090553      1.13577950262933
  C   7.69824230795671      2.51959255010251      0.34765312505866
  C   6.21475231873958      3.12171186120030      2.31621622346382
  C   7.23462869105471      2.75326309704972      3.30811073620954
  C   8.01688084835196      3.45721919714280      4.13856439976625
  Cl  8.02461595668284      5.17262300379948      4.09768457594448
  N   8.87399203901559      2.91231926133660      5.09779366977182
  C   8.98596247474063      1.64767070377828      5.15874466696983
  C   8.29884908227607      0.67848222014446      4.26848780778373
  N   8.60504261612102     -0.54952909975841      4.22180631773260
  C   7.24693491561737      1.26383043394924      3.37026850450497
  N   6.46048630467427      0.46947025227103      2.75317360408965
  H   1.06579519510887     -0.04627838115958      1.14670892293362
  H   1.74626441764599      0.43959884842894      2.70609395638942
  H   1.96371767375571     -1.21452424171604      2.13298828729000
  H   3.15807752505704      1.27410640522872      0.79577110130067
  H   3.35567453679499     -0.37726818579964      0.23469950222981
  H   7.46884733228159      2.75705560971673     -0.69400534437065
  H   8.15429926367564      1.52642111016517      0.36043145284744
  H   8.39405786384132      3.26342168639018      0.73014440826004
  H   5.19891203462351      3.02320707130673      2.69531510543589
  H   9.66404420999032      1.23170131254269      5.90340371270326
  H   9.33561846812383     -0.76928800253905      4.90373640209122
