30
Coordinates from ORCA-job 26201optt
  C   1.42650212025403     -0.24013119640727     -1.30733572836033
  C   2.81250973847525     -0.19359485236047     -0.74398256832036
  N   3.38955553237321      1.00238319833299     -0.60465797567259
  C   4.61344070358935      1.11383874763604     -0.08952409387746
  C   5.32285520040135      0.00036922311031      0.34572064042243
  C   4.75371560308996     -1.25107771238816      0.20721973066527
  C   3.49339145375578     -1.34681012188951     -0.35670124980780
  Cl  2.75567122266649     -2.89753663950127     -0.55326671160385
  C   5.26690717632230      2.48596708973452     -0.07183583536542
  N   6.06477645244040      2.71611382546588     -1.27876006338743
  C   4.31263986736258      3.67255526817757      0.06663771654294
  C   3.30203773751758      3.65085428575400      1.23241498957306
  C   2.97100131202307      5.06882300293881      1.68463951675086
  O   2.08435829765591      3.04761304287832      0.86723689954812
  C   3.90864566297691      2.91658002496784      2.38111270891344
  N   4.42120990581790      2.35513100998085      3.23971358228021
  H   1.09547978558377      0.76885847232779     -1.54057968273192
  H   0.73575817642895     -0.69409369415782     -0.59495628771833
  H   1.39768797767899     -0.84852292909149     -2.21275721458286
  H   6.29996528958306      0.11861101723567      0.79597315882032
  H   5.26814834050719     -2.14545006204691      0.53287260261078
  H   5.95594278709352      2.50133494771967      0.77585554148611
  H   5.47812467129246      2.62239428060317     -2.10225373126941
  H   6.80362713179818      2.02689659439608     -1.35936247708082
  H   3.71965781427230      3.78126319076225     -0.84523663898434
  H   4.94204903057093      4.55869225955154      0.14986298219329
  H   2.60940911591555      5.62807959411782      0.82173288403139
  H   3.85003555763926      5.56208307319917      2.09726855933299
  H   2.18724138562818      5.03505842057738      2.43921541552697
  H   2.28665494928550      2.32171663837517      0.25173333006474
