27
Coordinates from ORCA-job 26204optt
  C   1.61262251979187      0.21033294652685     -2.20809436320889
  C   2.91581181350830      0.25812259525899     -1.46297723464689
  C   4.04269189768892     -0.65014842597354     -1.78861139855377
  N   4.07992895813637      0.74345062743560     -2.18755890397470
  C   4.97995415750713      1.59202636808586     -1.42884606197002
  C   4.57418658891262      3.04819691800636     -1.51580374645700
  N   3.84721167301035      3.37600922978949     -2.58919990726399
  N   4.98823163050264      3.81828761836798     -0.56081007432787
  C   4.72719428086219      5.16804171708654     -0.51858555948841
  N   4.05332823464504      5.83870227303837     -1.46121096767081
  C   3.86568953094207      7.14379859944823     -1.29021182644403
  C   4.34999919698226      7.79271207615558     -0.16935276798029
  Cl  4.08250188550968      9.49255719361330      0.02112492578175
  N   5.01717226022447      7.15870707573132      0.77869794443246
  C   5.20652494564542      5.86720676305199      0.60958560307449
  H   0.92408898467055     -0.49518075937970     -1.74135175854421
  H   1.78401106435456     -0.10254094534086     -3.23829772041978
  H   1.13733046217050      1.19262894780091     -2.21932288621119
  H   2.85577214026368      0.57128488632858     -0.42371050904955
  H   3.93577144446372     -1.36565411553474     -2.59444884858802
  H   4.69926218225851     -0.95323620295851     -0.98024708445981
  H   5.98713865633014      1.49682636588303     -1.84379825236932
  H   5.02997961973892      1.32707812003235     -0.36702016768966
  H   3.58904503665127      2.63871161702833     -3.22619017667148
  H   3.57529055842797      4.33924919515282     -2.72152284192996
  H   3.32172913075372      7.68391548599808     -2.05512832698395
  H   5.75053114604706      5.32491382936671      1.37289291161494
