32
Coordinates from ORCA-job 26213optt
  C   0.78412091848108     -0.20748358919911     -0.16467038498224
  C   2.26958623984352      0.12236498586458     -0.25519679538507
  C   2.49564115369865      1.40664553133611     -1.04397097795029
  C   2.85876453847982      0.23369771238109      1.15108978456806
  N   4.29426927093056      0.43168227336424      1.09062445579448
  C   4.82355834133651      1.40430483930735      1.68857708144422
  N   4.18658289064243      2.34781782465848      2.48640396810204
  C   4.91370599492622      3.24231462948489      3.02053821936326
  Cl  4.18335772313167      4.41278002648030      4.04364138064097
  N   6.27903418092609      3.42250202698045      2.89158107723239
  N   6.87520369456615      2.57412045501775      2.15722510311614
  N   6.22812157443018      1.60179500310104      1.57459692335778
  C   7.05801432341392      0.68723560789936      0.79243735016006
  C   7.76139886160896     -0.34728061186454      1.67625173820509
  C   6.80276811840723     -1.21574265472825      2.46819581113615
  O   8.61411690976861     -1.11982961316072      0.85387733073852
  H   0.34803757122163     -0.31920655750141     -1.15821761427803
  H   0.24530037480523      0.59379048751002      0.34733564774968
  H   0.61279169123581     -1.13388711869970      0.38627555031527
  H   2.78691629648187     -0.69669058022981     -0.76429023617735
  H   2.00928605801735      2.24868694074599     -0.54353900455836
  H   2.07884998047066      1.32592482162215     -2.04896825517151
  H   3.55846224846348      1.63401635888935     -1.13446056651065
  H   2.67563721980116     -0.70261310853375      1.68634151137560
  H   2.35215329579561      1.03643886556383      1.69602319475356
  H   7.80711137213022      1.28425346104581      0.27703168543682
  H   6.40393337995062      0.19677633627610      0.07494711296270
  H   8.42198468940773      0.19325287627990      2.35896463360325
  H   6.13275336280456     -1.75556645735822      1.79511670255647
  H   6.18301211758609     -0.61728583808402      3.13691937213949
  H   7.36831589931422     -1.92869449144758      3.06737355228580
  H   8.09120970792205     -1.79912044300168      0.41494464797567
