26
Coordinates from ORCA-job 26215optt
  C   0.58394925258065      0.18880470757390      0.39516657240279
  C   1.88109367501279      0.07786780192194      1.13556705284615
  N   1.88335820973497      0.24992963427280      2.62484525688232
  C   3.34544083438258      0.48362416489955      2.45866816556710
  C   3.82484213281324     -0.83945734719315      1.89221834548864
  C   2.80940886896096     -1.12368721306080      0.96997720226740
  C   2.92398897271703     -2.26516779211563      0.21923759688853
  Cl  1.73329171803029     -2.68025594286105     -0.97553580216013
  N   3.93647100171063     -3.11543133412741      0.35947468140152
  C   4.88346119051294     -2.83296630185309      1.23930251550224
  C   4.89533644838987     -1.68263812286266      2.04210863035411
  C   2.95948766275168      1.24511463553349      1.13335511652868
  C   3.94628799765698      1.36704642207800     -0.01621541782915
  C   2.35094183058906      2.54187586380804      1.39794216453967
  C   1.88925562864606      3.63821126852878      1.54230237755318
  H   -0.06277831763504     -0.65989010210125      0.62058575213544
  H   0.75850713558020      0.19997699956829     -0.68117630074554
  H   0.08224923963641      1.11017520363479      0.68875973134626
  H   1.67574337483808     -0.61522544303546      3.12033407713917
  H   3.89159363832078      0.96875477621308      3.26183221880700
  H   5.68417199693415     -3.55958401377975      1.31901800497909
  H   5.70564173139096     -1.49706713355299      2.73375609983298
  H   4.44409784673321      0.42306058385098     -0.23083853574664
  H   4.70020373931782      2.11839611152863      0.21895290129349
  H   3.41927010133011      1.69637788003125     -0.91253365708601
  H   1.46868408906354      4.60415469309975      1.68889524981168
