29
Coordinates from ORCA-job 26211optt
  C   3.22626942850938     -0.79687747834460      1.24713531572885
  C   2.69215379954747     -0.10490631890151     -0.00670342280731
  N   3.05737185273411     -0.81190841662887     -1.23892932867700
  C   1.16046927095136     -0.06231679135734      0.04198609721507
  O   0.58655463889590     -1.34710447508278     -0.07807615813230
  C   3.17468227122708      1.35426361917723     -0.11510153057724
  C   4.66509830589490      1.50684555573367     -0.10006057004381
  C   5.41138512531382      1.55293920773890     -1.26962592401013
  N   6.74153301472845      1.65375255593781     -1.24097709748664
  C   7.32189320187734      1.70892600476031     -0.07885987220390
  Cl  9.04920374821469      1.83608605805231     -0.02856608608780
  C   6.58777237991235      1.67118034003701      1.12650146819531
  N   7.22235173423241      1.73042076998122      2.35134835782258
  C   6.60051454205913      1.62368333341008      3.57877988246697
  O   7.21124267558876      1.66798628901009      4.61203976857319
  N   5.27337151205424      1.57575775472818      1.08797876040673
  H   2.74305596070389     -1.76948562347412      1.35331882220603
  H   3.02294107840537     -0.20811331742107      2.14370029633765
  H   4.30415818546860     -0.94945047125601      1.18093838759958
  H   2.85336313563039     -1.80005606105339     -1.12521136252096
  H   4.05826282975833     -0.75324857789146     -1.39873299728400
  H   0.79585373854423      0.59767409956810     -0.75120035272999
  H   0.83617588884868      0.33775369733957      1.00453846853807
  H   0.57802916939016     -1.58424375778481     -1.01013250546320
  H   2.76334408584508      1.92099060385162      0.72231226186414
  H   2.77814961909441      1.76609010906305     -1.04505876252650
  H   4.93709453941207      1.51214116861378     -2.24255052689865
  H   8.22809893878676      1.83119285938709      2.36619885115500
  H   5.51560532837057      1.49502726280590      3.50400975934026
