23
Coordinates from ORCA-job 2627optt
  Br  2.31365747730030      1.10299680908338     -3.63968513410266
  C   3.31670713811933      1.06169172571288     -2.06327797352156
  C   3.99049882715268      2.10853853394029     -1.53035786697477
  C   3.17232791726233      3.27268599369790     -1.09946120343113
  C   1.86095984687408      2.98264124340723     -0.82203477636869
  C   1.44631974125105      3.55461413229711      0.39936329222452
  N   2.26813188443780      4.42983391338789      0.92840854668645
  S   3.65662609685297      4.49255278786345      0.02213446788248
  N   0.33488869778301      2.95271806940929      1.02472979548259
  C   0.51481789248951      1.72515166168447      1.34176290055277
  N   1.74312117575023      1.10102202402926      1.47918608634727
  C   2.17485774614376     -0.22230299685956      0.98231295553475
  C   3.32303086596053      0.05090726637359      0.02693106935048
  O   3.02808014666532     -0.02860228865545     -1.31643982941604
  C   4.44666964262115      0.66751254666490      0.39979011140432
  C   5.00487582010894      1.69964866919687     -0.49724121981418
  O   6.01777852536811      2.31462305032891     -0.29312012201754
  H   1.29122397378589      2.19063328858396     -1.28272467060307
  H   -0.34985690314876      1.11559484056810      1.59698208024185
  H   2.50675598710409      1.76296375498097      1.49255507648627
  H   1.35418279789907     -0.72676692320551      0.47538340436401
  H   2.51694846451523     -0.84385457401870      1.81060705060673
  H   4.74239623770334      0.70719647152873      1.44119595908511
