22
Coordinates from ORCA-job 2629optt
  Br  1.40601749983980     -0.07496049034029     -1.29300643712068
  C   3.05305756808257      0.13775546194813     -0.41058728984259
  C   3.58993318635763      1.28343153641632      0.05599396897747
  C   2.92633670680103      2.58249234667092      0.11242640388414
  C   1.62269773848298      2.78365494455026      0.34454750867987
  C   1.16764877377566      4.17748974412961      0.27188821461639
  N   0.00159831680633      4.63975182212354      0.42193140193992
  S   2.54036565104360      5.22676467915891     -0.08340444887722
  C   3.66906388388614      3.86413195913280     -0.09176908241104
  N   4.89147032290102      4.13392305906090     -0.25777555128758
  C   6.00187040472519      3.27231910578238     -0.19433090921114
  N   7.11796852618803      3.65642030118813     -0.66435427049945
  C   5.97819094509955      1.96738472322275      0.48340693045439
  C   4.96042232710093      1.10804378217598      0.54332481159832
  N   5.24288537985455     -0.15694279160527      1.15055359625337
  N   4.67286610468700     -1.17150303922490      0.75137055011895
  N   3.74986878381842     -1.03474304893790     -0.26718897229018
  H   0.90852516448343      2.00538007828326      0.57587984178690
  H   -0.66507929225745      3.89463667822826      0.62570776940533
  H   7.00751126654839      4.58314836727067     -1.07756164534567
  H   6.92897789330648      1.64498592782705      0.88841437874394
  H   3.29180284846866     -1.90656514706156     -0.48146676957344
