24
Coordinates from ORCA-job 2632optt
  Br  1.18428524396402     -0.39409874309651      0.09364676073627
  C   3.07696838034240     -0.26164822646999      0.14025882222296
  C   3.84324829022957     -1.39974319934769     -0.13492307793083
  C   3.26426088609168     -2.73519474212415     -0.46571680152158
  C   4.27814764969474     -3.70955584448635     -1.05221688428231
  C   5.60536118511662     -3.53891254872553     -0.32790059028641
  O   6.09230414464073     -2.20656694611302     -0.43632859748764
  C   5.22565398210000     -1.21727002487236     -0.14717238393971
  C   5.76503575835153      0.03992956922070      0.11251565696589
  C   4.88402103399404      1.06707191413101      0.38259342540096
  N   3.55496341532334      0.92942663157956      0.39624148797815
  C   5.40301196611989      2.38664756880197      0.66406202749833
  N   5.85450303603268      3.41742974356709      0.88016175073937
  O   3.74998659670103     -5.00681813029703     -0.81153398586214
  C   3.03990586830602     -5.00491247945618      0.41302999992761
  C   2.76401111507712     -3.54377786168845      0.74042761829373
  O   2.30110458398606     -3.12160815724650      1.75394806310135
  H   2.41024052982537     -2.62970821891268     -1.14195159488792
  H   4.40844860843477     -3.59611708145664     -2.12705604197904
  H   6.37202138130745     -4.18238817642986     -0.75092494547630
  H   5.48286171219416     -3.78596320399957      0.73338554877423
  H   6.83454815215220      0.19115487866131      0.10181215899856
  H   3.61700045619760     -5.45642266209682      1.22484546719680
  H   2.10610602381692     -5.55695405914227      0.29879611581966
