30
Coordinates from ORCA-job 2637optt
  Br  1.12923979576998     -0.27347292577639     -0.53244125017549
  C   2.94393440742494     -0.03067435770312     -0.09499837329519
  C   3.51950556492343      1.16356977006701      0.16968443298287
  C   4.89593782951429      1.05170522189849      0.43194573602385
  C   5.71936882086843      0.01456706499739      0.25282242555187
  C   7.11270608669035      0.58897738164367      0.13833836037017
  O   6.89361950207256      2.00656478225456     -0.04454266415257
  C   5.61176593852419      2.34320537343048      0.47351091430592
  C   4.64505530121575      3.20455739625511     -0.35716610345356
  C   3.21843762724140      2.64875681595380     -0.00406088154675
  C   2.62881934902216      3.28681779963231      1.28900837673114
  C   1.49807648002429      4.17656580624331      0.77994074024921
  N   0.99276356014688      3.39066360974041     -0.33997355830719
  C   2.18570294843081      3.02012282256203     -1.08858648807745
  C   5.12221625764611     -1.26708733333829     -0.03012312805696
  O   5.66228939986177     -2.33669492161555     -0.21512350643050
  N   3.70543574110079     -1.17177061771694     -0.09591906138947
  H   7.65212802280386      0.20758169515273     -0.72780561448257
  H   7.71939780359270      0.41890487304330      1.03311234703923
  H   5.71001784632328      2.74196597271470      1.49169365483466
  H   4.84929209550627      3.01952088634812     -1.41484311053032
  H   4.71210253307132      4.27659527444377     -0.16885700455863
  H   3.37981485227300      3.83551297025605      1.85787493705326
  H   2.21429395820874      2.50711006811577      1.92710157143785
  H   1.89825974476353      5.15151192757080      0.46191035656990
  H   0.72284254816824      4.34752546038228      1.52587893757113
  H   0.32344148034329      3.89593785539669     -0.90648002863936
  H   2.59095023274110      3.86564047688533     -1.66415941155574
  H   1.98748765466174      2.20379148183817     -1.78330891670147
  H   3.25209661706475     -2.05097263067602     -0.30543368936784
