27
Coordinates from ORCA-job 2638optt
  Br  0.91407664652166     -0.47317873224635     -0.58171148592338
  C   2.78955865322495     -0.24958305583187     -0.32481367840086
  C   3.62144663322267     -1.36171332521514     -0.29821613362358
  C   3.30635729185444     -2.82986388327344     -0.40708753723315
  C   2.42295143060708     -3.40927916962305      0.70016052908719
  C   3.39500536946133     -3.49745972119775      1.86205982021536
  O   4.65405231502145     -3.83347556540487      1.28038924532638
  C   4.68426958769462     -3.49951901245081     -0.10342089413051
  C   4.89696921403805     -4.72005087344512     -0.88862810598623
  C   5.04141566882522     -5.71334234471768     -1.54098410486978
  C   5.76275315144902     -2.40156429381682     -0.30966675687006
  C   6.55583160662598     -2.49063639174930     -1.60697438327174
  O   6.78440136137023     -1.55085994253288     -2.31180653626575
  C   4.98570954591712     -1.12317356176232     -0.20059100010565
  C   5.46496641952860      0.17179934255546     -0.10175674003160
  C   4.52807433422309      1.19304009172754     -0.10209322006382
  N   3.21584546884261      0.98613819978002     -0.21988943150725
  H   2.93702377731413     -3.07992133546535     -1.40193613856083
  H   2.08700618513703     -4.40432797199298      0.40592674887885
  H   1.55389085001113     -2.79382351827280      0.91747567726806
  H   3.14279827264529     -4.27089924091252      2.58527838638581
  H   3.47937765130537     -2.53758234899122      2.38090918010238
  H   5.16927105132807     -6.60091953325239     -2.11410845616784
  H   6.50283398519834     -2.52407074400763      0.48867431208611
  H   6.95119365395941     -3.49439663721400     -1.83889170446149
  H   6.52282731048673      0.38707799155341     -0.04583191746392
  H   4.83609256418628      2.22858557775989     -0.02246567441271
