26
Coordinates from ORCA-job 2645optt
  Br  0.92065294864760      0.03857101187490     -0.51265640822495
  C   2.76453033056235     -0.12699220257687     -0.18225601798668
  C   3.38617071729693     -1.30078991299261      0.00023093072955
  C   2.96098500715395     -2.74393582675052      0.01623765771661
  C   4.23565223380326     -3.40790653310973     -0.56123214936227
  C   5.13915790657338     -2.74095368097955      0.47907340484808
  O   4.50457937856016     -3.11024113013196      1.72351661809245
  C   3.11014960508245     -3.20583458660027      1.47179271203119
  O   2.66755044506811     -4.52815348811034      1.57003570289593
  C   2.82696256862134     -5.05765094392536      2.86416393811667
  C   2.27277778338070     -6.41381444185776      2.88790313643218
  N   1.84792816848491     -7.47539678916984      2.93143314026590
  C   4.79787832881050     -1.27709991273804      0.27137185433088
  C   5.52196735477050     -0.14490330888240      0.33214536701958
  C   4.86015996526509      1.13454888827899      0.11101337711026
  O   5.38249927100290      2.22832691589177      0.12465321852662
  N   3.47884099951820      1.03281734391652     -0.13708281227569
  H   2.00131567755488     -2.98552692715785     -0.42812525257190
  H   4.44698218347887     -3.09175199652358     -1.58028092137512
  H   4.23002599387113     -4.49223400712591     -0.47760564058822
  H   6.18911547513472     -3.00963810674737      0.52178731618713
  H   2.58235055253695     -2.58101539454178      2.19951310170396
  H   2.29471913874016     -4.45054397566638      3.60531062842407
  H   3.88241432875339     -5.09952833645396      3.14462045822826
  H   6.58260172766722     -0.11906711895782      0.53854414077632
  H   3.01303190966033      1.91671446103774     -0.29010750105081
