22
Coordinates from ORCA-job 2648optt
  Br  1.54508598543653      0.20617293615326     -0.58014430764524
  C   3.35331062510363     -0.06226845594239     -0.09911551509286
  C   4.20646151899235      1.02069559504181     -0.04160621355612
  C   4.03893423560166      2.49940227486462     -0.20098319505024
  C   5.49167354387394      2.98501372086037     -0.25143385057278
  C   5.52527630604637      4.16745405308427      0.70538646274754
  O   4.39355069097985      4.02984790345080      1.55945124378573
  C   3.49127345578175      3.14584748508292      1.08008378639298
  O   2.45779829151245      2.91720605058610      1.61453475149381
  O   6.29366901185534      1.89437282121978      0.25437473142866
  C   5.53679144660539      0.78276640331391      0.26227707181913
  C   5.98323384331183     -0.49715454845349      0.53927229630278
  Br  7.77641374727171     -0.80746721338815      0.97323609400538
  C   5.02423863784726     -1.51738939885394      0.46723188604059
  N   3.74582573797931     -1.29254257533831      0.14219660909272
  C   5.39269391082940     -2.87572002035160      0.73745554452202
  C   5.71249848563931     -4.00627221665033      0.96690293239479
  H   3.42003082175604      2.78959695369649     -1.04921132056500
  H   5.86091466725633      3.23344342233254     -1.24457550859073
  H   5.44661888094457      5.11208945600072      0.16568810047779
  H   6.42552857123950      4.16532228553632      1.31592515045088
  H   5.99017758413543     -5.01241693224573      1.17405325011815
