23
Coordinates from ORCA-job 2659optt
  Br  1.25857578381483      0.26347598559652      0.32379970908542
  C   3.11712445266294      0.07258534255597      0.11163502210364
  C   3.71266788710048     -1.20080192689667      0.03873481276222
  C   5.08514052011445     -1.18705608974783     -0.10134054184923
  C   5.82535961851023     -0.02174479243332     -0.09312056190535
  C   7.27505526868439     -0.39630827984804     -0.01690015084819
  O   8.22698916688847      0.32515338853676     -0.10970322421105
  C   7.31567942233409     -1.90930273972495      0.24502386526029
  C   5.93349195663318     -2.42122047410914     -0.15391563517164
  O   5.38956483291593     -3.38373674980821      0.71747901472653
  C   4.07788867334060     -3.72386877584656      0.31707540985889
  C   3.09271521989120     -2.55452998937015      0.15682475243627
  O   1.91575895610555     -2.78206954524362      0.09915803437995
  C   5.12704879102109      1.18224786521933     -0.02741793203731
  C   5.85152844156830      2.50711881911925     -0.02656346720378
  O   5.28128792138919      3.55732317632498     -0.02108700331181
  N   3.79840924510072      1.19993981141299      0.05802857064424
  H   7.44823229396015     -2.05141805462985      1.32103076918950
  H   8.14980901125315     -2.37619852297661     -0.27201610994268
  H   5.95098537077704     -2.81996286650213     -1.17855610034064
  H   3.66653341620643     -4.39816638285880      1.06480158549478
  H   4.09634077335037     -4.25141561455446     -0.64725829772542
  H   6.94981297637719      2.42595641578456     -0.03671252139463
