22
Coordinates from ORCA-job 2661optt
  Br  0.99275856033047      0.27134329556461     -0.06486232919421
  C   2.86562779609234      0.13273214020888     -0.05998911485468
  C   3.50783785283929     -1.07624752493296     -0.05988148113156
  C   2.94548344142759     -2.40291923707105     -0.06186923607207
  C   1.71517305955203     -2.93652181960644     -0.06283700341878
  C   1.86620489233165     -4.44441780365869     -0.06471601725922
  O   0.94646070348424     -5.22267703340146     -0.06587886280181
  C   3.30801477058426     -4.73459634749509     -0.06474677914901
  C   3.92512386592786     -3.54604632783513     -0.06293701466739
  O   5.24049666548200     -3.35549123522815     -0.06229897940116
  N   5.78288675312786     -2.07248657501346     -0.05891478508525
  C   4.97583045761386     -1.07430064649947     -0.05775150840935
  N   5.59387997602869      0.16232025071122     -0.05418400907577
  C   4.92506898217933      1.32901429123896     -0.05364701235868
  C   5.75512217386301      2.55837372113930     -0.04991338464029
  O   6.95405609102527      2.51147168866435     -0.04791064121047
  C   3.56937326786365      1.36834774812540     -0.05667708976224
  H   0.75225309608213     -2.45807992103667     -0.06228846815186
  H   3.74658433047728     -5.71699412982374     -0.06596637749794
  H   6.60824392707264      0.18761767600738     -0.05229718457001
  H   5.19529582101922      3.50685077898288     -0.04909038748712
  H   3.04322351559528      2.31070701095933     -0.05634233380111
