28
Coordinates from ORCA-job 2666optt
  Br  1.93541045277610     -0.93361938732718     -2.07665326807225
  C   3.28369006917119     -0.59622315609048     -0.81556498559331
  C   3.34711659769864      0.60976503618452     -0.17142409874877
  C   2.48808764018405      1.82704655756262     -0.19518485805965
  C   1.29528223695158      1.84102431671386      0.77191425131337
  C   0.04443455334731      1.57419000584433      1.60023642017192
  O   0.26596596470552      2.66385437492824      2.55327645029594
  C   1.61796630668710      3.07612569198493      2.88829740009383
  C   2.62867150134582      3.68218790003187      1.81630587335757
  C   3.36701597652849      2.83237339050666      0.71479348258517
  O   4.31950567276725      1.97716763938581      1.38307712249438
  C   4.35375397290520      0.77536055031398      0.78908277393395
  N   5.25394501454465     -0.11422802972767      1.13532316957255
  C   5.18778173137419     -1.27415978511462      0.48535188796134
  C   4.24145087138149     -1.57465514373904     -0.49203896361506
  C   4.26364219028942     -2.85680634806688     -1.12157345330689
  N   4.30045220213993     -3.89293307220313     -1.61337066646572
  H   2.29111785148541      2.21201840482679     -1.19373020080321
  H   1.09508628701631      2.90000336010551      0.67301688194895
  H   1.92327493948109      1.63292844898552      1.62745916457176
  H   0.03396725855061      0.61255538437639      2.11450890031247
  H   -0.91936248669523      1.77799158648777      1.14060911212304
  H   1.43429799517377      3.87657398035931      3.60468479473105
  H   2.13278756435501      2.27172876769020      3.42588689611886
  H   3.43502615828334      4.12166304987032      2.41227523978951
  H   2.13918848999711      4.51813262301283      1.31039357180217
  H   3.94542129296651      3.51994344786981      0.09254869679240
  H   5.92602169458812     -2.02300959477232      0.74649840469461
