23
Coordinates from ORCA-job 2670optt
  Br  1.41111262664172      0.03558435974109     -0.84401745358288
  C   3.19050450411159     -0.07281356780176     -0.26529195461798
  C   3.80838291057887     -1.23531332206022      0.04148642746523
  C   2.97873480107738     -2.57537797609397      0.15227653278560
  C   3.17727130362539     -3.79226140759669     -0.84582934853043
  C   4.63645102582765     -4.41038007371232     -0.79861799276749
  O   5.04554401151557     -5.28807625704489     -1.47558252926996
  C   5.29282700444041     -3.38098797670038      0.15431445345637
  C   6.22533759905695     -2.22008399340926      0.39116657288973
  N   5.16900624854596     -1.10782787353532      0.46191139055150
  N   5.74359556967731      0.06835371922240      0.69892290279584
  N   5.17154347928774      1.15769402015410      0.48119522226930
  C   3.88822673014777      1.21138265352054     -0.13288114701245
  O   3.43790289584036      2.26746668899027     -0.48083845127508
  O   4.63841008038219     -3.60268451363612      1.40287009075200
  C   3.36492137287171     -3.15545627719944      1.49051787104890
  O   2.70962816191795     -3.27023837439506      2.47129547694750
  H   1.93332160704001     -2.29145682767031      0.17661225150336
  H   3.04360031727603     -3.46259390713220     -1.87919270742741
  H   2.41670974884008     -4.54385844435406     -0.63563274141514
  H   4.74765201656516     -2.71498783833618     -0.49204685269677
  H   6.87737628367533     -1.99868343372940     -0.45077957084635
  H   6.77293970105680     -2.22639937722079      1.32814155697661
