28
Coordinates from ORCA-job 2671optt
  Br  1.20234115906157      0.18076220792756      0.19916834473551
  C   3.06445630805747      0.03654983061119      0.06678387096768
  C   3.85349112091290      1.07352237740795     -0.26766536082466
  C   3.47872506191111      2.50387404267974     -0.58505064207894
  C   4.72328653898025      2.98139802202504     -1.37176090329770
  C   5.90962873128568      2.26068328765626     -0.71567093034521
  O   6.46316635113142      2.92212043452818      0.41150852665044
  C   5.64426384139395      3.79745961536381      1.16585426460854
  C   4.29804401174976      3.23770239699249      1.63023492766129
  N   3.21213768839185      3.21438569459625      0.65747991158620
  C   5.27714235298285      0.93429000742452     -0.34419674258214
  C   5.84597068267793     -0.25416148932087     -0.10102388287133
  N   5.05119863009996     -1.33771474923661      0.22300620737649
  C   5.67923690622169     -2.58747297630741      0.44994095684942
  O   6.86419951918338     -2.72618581816916      0.39034137273644
  C   3.63318098293755     -1.28716812137541      0.33209009672243
  O   2.99775136023122     -2.27485030754296      0.61613923401028
  H   2.57127911113581      2.54166983868849     -1.18851448463879
  H   4.82896357826999      4.06495759009147     -1.38339207180604
  H   4.64847353072034      2.63788416492817     -2.40518280324109
  H   6.74296719265293      2.12897230908886     -1.40508928781074
  H   5.47741036416336      4.73327987336628      0.61777005264840
  H   6.24558767383379      4.03776214217831      2.04336843572823
  H   3.95866526693374      3.84837990877913      2.46874700280415
  H   4.44786853522247      2.22708938514901      2.02008102349077
  H   2.90010747657818      4.15552889583467      0.45074875740243
  H   6.90574200053383     -0.46560450380529     -0.13211466985226
  H   4.95671402274499     -3.37511405955969      0.67539879337021
