25
Coordinates from ORCA-job 2672optt
  Br  1.00379950412351     -0.16825668375787     -0.17491098073422
  C   2.88945312964351     -0.13778880889378     -0.09076719913219
  C   3.62244715066725     -1.26305353007512     -0.04832623336730
  C   3.09930942299403     -2.68321572539328     -0.05024105061446
  C   3.61807717935720     -3.38062642102613     -1.31191614002545
  C   5.13779476618953     -3.32587488755890     -1.28579777916575
  O   5.84893041742082     -3.79924589234615     -2.12420896240231
  C   5.66846149516412     -2.60917225147344     -0.03872211030713
  C   5.13705178956796     -3.38777403113331      1.18131294639518
  N   3.67751228243253     -3.36519790524064      1.10806509807185
  C   2.89135803831335     -3.84630731488349      2.10363831511713
  O   1.68460186314965     -3.81110842664775      2.11361721678665
  C   5.06916945013286     -1.22312759871484     -0.02896528642413
  C   5.83253958505780     -0.11220096065370     -0.01831484073333
  C   5.32048672568529      1.24533464097607     -0.01907006436851
  O   5.98587122121294      2.24612894258433      0.00968076023436
  S   3.53002916041689      1.46249949726632     -0.08536276491619
  H   2.01958674961186     -2.73545961726789      0.04386496525014
  H   3.25795051782505     -2.89279509101785     -2.21949371102951
  H   3.30534194650498     -4.42584369618263     -1.34169762077462
  H   6.75509671880487     -2.59380329654078     -0.05463403676366
  H   5.48919899787009     -2.90971571145631      2.09808668714710
  H   5.51624479529148     -4.41197865986381      1.15517137729191
  H   3.48072422760805     -4.29358201334315      2.92198916004596
  H   6.91396286495433     -0.18183455735588     -0.01299774558151
