24
Coordinates from ORCA-job 2675optt
  Br  1.15255335695564      0.37079928294347     -0.39698831788215
  C   2.99893548297866      0.50944049558880     -0.21055473563650
  C   3.62229696329689      1.42347646737108      0.54358086103060
  C   3.18601228662129      2.58532829457791      1.39438526263671
  C   4.47345201671331      2.84205752083125      2.21937685485068
  C   5.54703764711295      2.67755846730104      1.14251624264642
  O   5.52497644396641      3.79584684619431      0.26134219552855
  C   4.28142366397486      4.12127723072953     -0.33921049640546
  C   4.17064623355125      3.44291390723200     -1.71317832630875
  O   3.15838646134914      3.37007435380036     -2.34041490582640
  C   3.03281932368940      3.80527430354733      0.49851738398455
  O   2.04406267761776      4.47160115279206      0.42202482818608
  C   5.05655538108367      1.43886736618240      0.40971574542093
  N   5.76582540472067      0.61773307258828     -0.26440156261514
  C   5.08626799708303     -0.42764686353163     -0.89178023512823
  N   5.58935710244540     -1.42150082425323     -1.45992459669701
  O   3.67776669454666     -0.37801798561269     -0.92400614722858
  H   2.27727700975860      2.42869032800474      1.96970431435541
  H   4.58172765868289      2.08438093227980      2.99610542294257
  H   4.50593525132655      3.83217354056117      2.67232966571427
  H   6.56898509420317      2.59381624108962      1.50008937705181
  H   4.28555383960167      5.19839899327648     -0.51979660153158
  H   5.13592264341576      3.03836877283030     -2.07655129379292
  H   6.60222336530427     -1.35591189632441     -1.40888093529586
