22
Coordinates from ORCA-job 2681optt
  Br  3.09894678001647      3.18828228900669      3.28187829231264
  C   3.18736566715932      3.76265942380843      1.49385438658626
  C   2.94425724793102      2.94980151540604      0.44474287221552
  C   2.78406253644302      1.47711454481774      0.58413722223466
  C   1.89623380908362      0.56039359983601      0.08256957046411
  C   0.61330333443784      0.50650706504620     -0.71355243241089
  O   0.66953448244682      1.14976344416370     -2.00338275677236
  C   1.13155509289923      2.39142364849717     -1.72547835170879
  N   2.35589675887521      2.63008352971356     -1.78544738084573
  C   2.84916658443261      3.57420368540891     -0.89175539905211
  N   3.15052004474285      4.75914902923024     -1.25544383062865
  C   3.68040631656178      5.69047687184910     -0.37978014430361
  N   4.20412633108238      6.79022091860601     -0.70511791343798
  S   3.55194575255142      5.44366655753639      1.38918183726655
  O   2.30334657751449     -0.66673131338871      0.51275753420621
  C   3.40445961902066     -0.44467335859906      1.24228874716962
  N   3.74256504953791      0.78758131873958      1.31920986329876
  H   0.37244352903160     -0.53524361891271     -0.90630803858225
  H   -0.20219865705722      0.95750124108980     -0.13915272905726
  H   0.39100568397273      3.06535106140918     -1.27755162096828
  H   4.17816145460827      6.89304492909204     -1.71958635550782
  H   3.88889600470795     -1.30157638235631      1.67993662752143
