26
Coordinates from ORCA-job 2683optt
  Br  1.16294798082224      0.44075052008637     -0.55572441383703
  C   3.01334937893908      0.25778707210279     -0.32114556661609
  C   3.66748692357950     -0.89297954628622     -0.59844516305965
  C   3.11466745631894     -2.18198108314951     -1.14296990530546
  C   2.37331257458119     -3.05488249105075     -0.10561544457824
  C   3.23732462767896     -3.80385852477249      0.90548359302960
  O   2.88179699811397     -4.88069989099411      1.30652175751013
  C   4.53991973032066     -3.18619254300296      1.42773444950281
  N   5.66507450994792     -3.20575158453869      0.49625618057086
  C   5.54753698310203     -2.39390004551367     -0.72092755493305
  C   4.38459151738054     -2.91301254188961     -1.58611257086966
  O   4.45264139205394     -3.78638669704578     -2.39973171898102
  C   5.08246954898572     -1.00454936415449     -0.40779228011060
  C   5.77031238270546      0.06453144843440      0.04215701084228
  N   5.10483169047515      1.22139749116192      0.29861516415166
  C   3.73136730464945      1.43943645647697      0.15350089540998
  O   3.25390399841208      2.52230715379296      0.40723907202373
  H   2.44640977482384     -2.01046950142537     -1.98688283067294
  H   1.77987024716970     -3.80681963118585     -0.62323475420890
  H   1.68528846013986     -2.42313578226765      0.46500936068604
  H   4.82290397314398     -3.76466810697965      2.30544481146053
  H   4.35962029508396     -2.15448434768798      1.73890383144376
  H   5.90160672359824     -4.16101170362502      0.24776030190415
  H   6.49076712571837     -2.45025484279385     -1.26264612777306
  H   6.83650134747999      0.06569797663779      0.22312809470079
  H   5.60849705477513      2.03613010967048      0.62147380770938
