28
Coordinates from ORCA-job 2686optt
  Br  1.18925933599464      0.02802202800834      0.74116637783996
  C   2.96491026368582     -0.02062364783529      0.12151104663621
  C   3.70363407928805     -1.14202267826847      0.09534686070040
  C   3.44371975179364     -2.57133510577359      0.50717048098382
  C   4.41172168122463     -3.31010557587023     -0.43894458493685
  C   5.65177930430257     -2.41866669793720     -0.28554724531795
  O   6.66286514054656     -2.58083974948630     -1.23079964454582
  C   7.27028428026413     -3.80083328803437     -1.27713817098924
  N   8.14839570986377     -4.10485206956825     -2.11355579455427
  O   6.21860541611011     -2.63840535601556      0.99085106781913
  C   5.37783331123138     -2.28676730366438      2.08970643384310
  C   3.94721567231464     -2.80761640145783      1.94207486321305
  C   5.04475473785784     -1.02817282290408     -0.38956715192229
  C   5.59643288398057      0.12063022594268     -0.81741727890577
  C   4.79686555370079      1.33718477419899     -0.80833207270742
  O   5.15162134128365      2.43514301627400     -1.17825905013355
  N   3.49057019581760      1.15857694041517     -0.31347917866553
  H   2.40322066445393     -2.86952495229600      0.39255176078893
  H   4.06137386361808     -3.28162973144301     -1.47110546084140
  H   4.60758382467972     -4.33820740735629     -0.13714529543628
  H   6.93854028360469     -4.50240713592509     -0.51621898065532
  H   8.34404594942548     -3.32425083666486     -2.74152605616364
  H   5.36864996539335     -1.19729213749361      2.19097758937836
  H   5.86068983846408     -2.70356730967609      2.97078832163805
  H   3.31259820389403     -2.29089170275205      2.66482104607929
  H   3.90488927118240     -3.87683910390035      2.15994061306909
  H   6.60919177060047      0.18794010900201     -1.18819525693852
  H   2.92474770542336      1.99635392048173     -0.30567523927555
