24
Coordinates from ORCA-job 2690optt
  Br  1.25491474665943     -0.09855677650816      0.02241019678545
  C   3.11392606446968      0.08065934660539      0.06523129766741
  C   3.74833121930475      1.19080167135172      0.45505912474024
  C   3.29056626783071      2.53880189020539      0.95193421424139
  C   4.51945696504074      2.97373232778597      1.77388787915674
  C   5.64123076533342      2.55596847277485      0.82578972143730
  O   5.65817653967810      3.39571385862152     -0.33709453476216
  C   4.49841474014395      3.80450904792625     -0.92079748200367
  O   4.55384170441839      4.40977446561239     -1.94463507637600
  C   3.17616445035858      3.51650893174725     -0.21990087381257
  C   5.18162101028411      1.17758688164066      0.40119485425870
  C   5.86826271685191      0.09092272126889      0.00548872727586
  C   7.29342993974089      0.04923481923857     -0.02363813565194
  N   8.43940584412512     -0.01359094895430     -0.04243016494668
  C   5.13715589154599     -1.12397953023053     -0.39835011151705
  N   5.57534530365331     -2.22988951881849     -0.78721700007156
  O   3.74693343666866     -1.02142403161557     -0.33748942619165
  H   2.36332867416534      2.49351413809904      1.51926899890069
  H   4.59350145449842      2.41542361955323      2.70719096757642
  H   4.54224981557630      4.04201026456080      1.98730289465767
  H   6.64855136646189      2.59269867986938      1.23101809556781
  H   2.48395142467949      3.16504882304681     -0.98457579161813
  H   2.80637908727629      4.48446441344188      0.12661649109316
  H   6.59186057123446     -2.24193356722297     -0.81326486640742
