24
Coordinates from ORCA-job 2695optt
  Br  1.17516868750029      0.01318278090515      0.19964569104122
  C   3.04882929639945      0.17957222162269      0.04529771141194
  C   3.68964837418722      1.30472560563296      0.42027256068600
  C   2.99264881986872      2.55250270336237      0.92507106700403
  C   3.54230431718428      2.98908403601841      2.28305066917776
  C   5.05178009193384      2.89365033117303      2.34378201985585
  O   5.69249050234025      2.90956416863796      3.35519533905576
  C   5.67553607829564      2.72856794429484      0.96191939415634
  O   5.36467455737901      3.90894971376475      0.20549646069458
  C   4.26022373159781      3.98008928520804     -0.59280326331027
  N   4.27142143652888      4.51005417530489     -1.72573463038916
  O   3.08513476553333      3.57446211950636     -0.07161717294961
  C   5.13553145952546      1.46257034773756      0.35692689502639
  C   5.95955243117421      0.53549344197950     -0.14841329340226
  S   5.45324776539452     -0.97410355115036     -0.78004783608594
  C   3.69662119260589     -1.02373225630331     -0.50999073333726
  N   3.03391979873233     -2.05664401713926     -0.81466536196498
  H   1.92536996791009      2.38777968243626      1.00942031251144
  H   3.12952043362318      2.36008805906958      3.07323293306037
  H   3.23861367157715      4.01836369150040      2.48622285676646
  H   6.75921613353553      2.70353027584065      1.04555667428668
  H   5.21117674347945      4.81901106691216     -1.95565540077427
  H   7.03188920289208      0.68542575878775     -0.17957571299809
  H   3.60748054080134     -2.80818758510242     -1.19258717952299
