21
Coordinates from ORCA-job 2696optt
  Br  1.09012260959923     -0.18339628875992     -0.07763562885401
  C   2.95370301124088     -0.14954305249209     -0.01769570677159
  C   3.69152725571563     -1.24890926819547      0.17364739304561
  C   3.33148161803711     -2.67848598205281      0.32063793004629
  C   2.50712586566416     -3.67669888594704     -0.05984123466389
  C   3.32079196387913     -4.95822008915616     -0.09190103538669
  O   3.01050424965454     -6.03410154998240     -0.48715948508775
  N   4.66831969361938     -4.59145220829195      0.37182006513936
  C   5.97257816750872     -4.77240212711199     -0.11434903141585
  C   6.63246792898126     -3.56328400299132     -0.12980498471096
  C   5.69342824174616     -2.55245329633970      0.31080811551163
  C   5.17387174983465     -1.17322248964069      0.14799253389574
  C   5.72881775541619      0.02002792178479     -0.06462416652121
  O   4.98134418461207      1.13928176778721     -0.22518201781142
  C   3.60814995831038      1.15787405885723     -0.21953542978917
  O   3.04324061505194      2.19373516898457     -0.37939419971343
  C   4.59175117466102     -3.27150548272571      0.61146056119290
  H   1.48903070147939     -3.65561883522148     -0.41243996036084
  H   6.33984985367356     -5.75324541440394     -0.36681308062002
  H   7.66076133998446     -3.43682865487793     -0.42752470659183
  H   6.78613206133008      0.22544871077681     -0.14046593053287
