25
Coordinates from ORCA-job 2697optt
  Br  1.13039659375299     -0.29383697567527     -0.89557562474511
  C   2.93995482978867     -0.05010772848105     -0.47036455833281
  C   3.80290334198054     -1.06938601468830     -0.30634689867871
  C   3.53665679701738     -2.55272293207946     -0.34325510812347
  C   2.53396026502926     -3.04984534022999      0.70594738282569
  C   3.38062702814161     -3.54900000712789      1.86535936667665
  O   2.99134021697829     -3.90651814657944      2.94525437492769
  N   4.68664464516980     -3.53120432512429      1.45391387676649
  C   4.92342672286380     -3.17493638889247      0.07437941505114
  C   5.98739249076823     -2.08331209220175     -0.10199729785049
  C   5.19684564173423     -0.80691933533254     -0.08204033672210
  C   5.59578943640506      0.46278170598766      0.03582760424297
  O   4.73287859059668      1.48964830247184     -0.05944537732637
  C   3.38983979929485      1.34013369158942     -0.34346009321688
  O   2.71839090745523      2.31928445624254     -0.44893246726849
  C   5.20543633844265     -4.42965271354263     -0.74303285246828
  O   6.02458115326934     -4.50660117239304     -1.61028844687389
  H   3.24808673227694     -2.84558443322736     -1.35501678411172
  H   1.93263745547444     -3.88171927010219      0.33788753589077
  H   1.84993216854042     -2.28112684049604      1.05701844204918
  H   5.41234348217407     -3.88042285826716      2.06167049631698
  H   6.48061566413635     -2.22383113619564     -1.06555268632748
  H   6.74796804018715     -2.14252778095053      0.67601293159399
  H   6.60913102003986      0.79711561438812      0.20838316058418
  H   4.56822063848211     -5.29470827909250     -0.46834605487994
