29
Coordinates from ORCA-job 2698optt
  Br  1.24835464514242      0.02017362861474      0.45984903782882
  C   3.11530996406742     -0.08908627024699      0.21131086140226
  C   3.79398244880762     -1.27038185266110      0.22648150309395
  C   3.03627035735422     -2.56139534219981      0.41936525880174
  C   2.88969398977393     -3.04396673603528      1.86797536536696
  C   2.37417995165724     -4.46870748511990      1.69300870094933
  O   1.89308883626318     -5.17797739672971      2.53996451088675
  N   2.55955008649240     -4.79838340022474      0.37475383958281
  C   3.41577966229377     -3.85841582175692     -0.33784704418811
  C   4.85464722319729     -4.36843921792565     -0.25412302168959
  O   5.81706531042739     -3.46689264902660     -0.72692845960212
  C   6.11161175082228     -2.44772356680378      0.20317856399266
  C   5.23707193578394     -1.23417918673605      0.08554504008655
  C   5.83056209963476     -0.04151002677890     -0.11675993970182
  N   5.12737690949739      1.11973595125225     -0.16173842924176
  C   3.75135729446093      1.21919456002703      0.01983396330885
  N   3.09597463406449      2.31239981107612      0.01134877188593
  H   2.02188504410653     -2.37212030400198      0.07365725047013
  H   2.19407831620247     -2.44761260668764      2.45437568301636
  H   3.84350432099447     -3.07941267054006      2.40104884924214
  H   2.43661472618794     -5.75631803850378      0.08374366721373
  H   3.12328996731735     -3.77463365019474     -1.38540748415804
  H   4.93315777472916     -5.27146223766152     -0.86310141662115
  H   5.07691840971831     -4.65269603017178      0.78343281722102
  H   7.14620833204185     -2.15034222205000      0.02790744839954
  H   6.05916440183528     -2.86407523829373      1.21765914488161
  H   6.90014619625710      0.05354902328230     -0.24662929068811
  H   5.62391674314817      1.98251201650851     -0.31811925936118
  H   3.69523866772066      3.12016695958973     -0.14078593237926
