22
Coordinates from ORCA-job 2699optt
  Br  1.18456002355293     -0.09931355058443     -0.06063944856226
  C   3.03941181939992      0.06176652297265     -0.06327580816824
  C   3.72976500669152      1.22895987979076     -0.06330032430814
  C   3.13488072207634      2.55757533162946     -0.06194832909772
  C   1.91135376533831      3.09737726254309     -0.06115164781007
  C   2.09626043440366      4.60223860592291     -0.05980267303278
  O   1.20514115020088      5.40361836474099     -0.05881125149540
  N   3.47307700308137      4.90023752465939     -0.05988783598157
  C   4.05357325142078      3.75081471934893     -0.06118820558923
  N   5.37324396879609      3.54713172504805     -0.06189956805376
  C   5.95136847760566      2.28401741832714     -0.06363057604692
  C   7.41276791494476      2.33005518961456     -0.06436237304308
  O   8.01144639772222      3.38048029446205     -0.06358592888355
  C   5.19882358001134      1.14957026700018     -0.06450299147471
  C   5.75422222687635     -0.18441381973847     -0.06642149900521
  C   4.95606006659712     -1.24811737400999     -0.06658812248168
  O   3.59821665708878     -1.15504715627783     -0.06490279788244
  H   0.93706047792592      2.64329205985040     -0.06141812522667
  H   6.00972378335077      4.33676784959225     -0.06139268656187
  H   7.95319736915400      1.37394209344077     -0.06557640869774
  H   6.81858522537092     -0.35646651388558     -0.06777440758882
  H   5.27726067839033     -2.27748669444729     -0.06793899100815
