25
Coordinates from ORCA-job 2702optt
  Br  0.91817664270785     -0.29372407929919     -1.37193348029473
  C   2.68657379966237      0.10036831502867     -0.84413840388891
  C   3.57209093235948     -0.88731960524795     -0.58395799912673
  C   3.26408805215951     -2.36874705265336     -0.57875945820239
  C   2.23066961258449     -2.77834491147517      0.48113658545947
  C   3.03326571274291     -3.28443770562621      1.65795112843118
  O   2.63041662715430     -3.56044498079249      2.75255757170408
  N   4.36085392446706     -3.41361880462467      1.24116862599661
  C   5.31394686905520     -4.05774771153885      2.00322934484079
  O   6.41686713022413     -4.30549493171790      1.59157686590786
  C   4.59991841774664     -3.04296169363774     -0.14917068893986
  C   5.70128158982194     -1.98645458865999     -0.29556034756527
  C   4.96610546118775     -0.67064672324455     -0.30419937923026
  C   5.50758949796765      0.54793377976816     -0.15361450738489
  S   4.63380151613071      2.01484428305385     -0.30621856262810
  C   2.97969857766906      1.53544924568699     -0.78430731922178
  O   2.19367631968194      2.41706779545769     -1.00697481742966
  H   2.95524227753142     -2.68217428835675     -1.57611763389018
  H   1.59124191090519     -3.59354936406298      0.13863062757241
  H   1.57843630076141     -1.97007032896046      0.80261988129950
  H   4.94909085477285     -4.31718890710304      3.00410017030708
  H   4.83046721993671     -3.94132728333062     -0.72103567508341
  H   6.21427145019837     -2.12938479231581     -1.24921965655405
  H   6.44954335326410     -2.06895306228737      0.48964733735649
  H   6.56068594930689      0.68392739593980      0.06158979056476
