19
Coordinates from ORCA-job 2708optt
  Br  0.57410677954217     -0.31249654380972     -0.06964033559898
  C   2.42438271351871     -0.18827651869340     -0.25731190803888
  C   3.15378928414375     -1.00510953817522     -1.05320893485494
  C   4.58995576911976     -0.82805739220472     -1.06985945618748
  C   5.30037346762106      0.09721585821298     -0.40692830739316
  C   6.76733895674745      0.00152989439384     -0.62751971903978
  O   7.63153421776045      0.66786867001548     -0.16412128789190
  S   7.10104459165938     -1.38291680823952     -1.77107309864333
  C   5.39360385463200     -1.74308962079973     -1.86827826040764
  N   4.94105221761432     -2.71821813852712     -2.54476481259435
  O   3.57543907095985     -2.91024576791313     -2.54534282575703
  C   2.64944978641649     -2.08762948214064     -1.92680911764454
  N   1.43354825434061     -2.31280657077700     -2.14072593245070
  C   4.61413284143043      1.09001212724095      0.43327101764351
  O   5.15813261105353      1.99954458172086      0.98581653115232
  C   3.08973196101780      0.88218639174311      0.55842027762274
  N   2.50651279460906      1.65049723002291      1.36961045376756
  H   1.31908418031385     -3.10040302727833     -2.77926556907382
  H   1.50078664749925      1.47239465520840      1.41173128539042
