25
Coordinates from ORCA-job 2711optt
  Br  1.00553049147569     -0.00989925426006      1.06800060785148
  C   2.67143708631303      0.24602334848350      0.19445069819673
  C   3.31007487745449      1.43305216644829      0.23362963020644
  C   2.50650101861406      2.69380263080121      0.31539907218263
  C   2.85015864837190      4.14693445188802      0.29773304064985
  N   2.56232111037894      3.44327165821744     -0.92396452990203
  C   1.33640519441104      3.49369520118070     -1.72267854806206
  C   1.36519409514700      2.14546105244899     -2.39331090305707
  C   0.52552506228397      1.11731766137501     -2.21280179157286
  C   1.15381242903179     -0.16684768239489     -2.19400948193568
  C   1.98339572564155     -0.92815353712969     -1.73690124437275
  C   3.05960658283142     -0.80670793267911     -0.77489381505026
  C   4.34319340340655     -1.06882789665264     -1.03704697855501
  S   5.59388286643563     -0.11784607764083     -0.29015075018277
  C   4.75615237734344      1.46385303442456     -0.07118072836598
  N   5.41940933383604      2.53757681728884      0.00707076535468
  H   1.50606042844765      2.51350077851886      0.69344185312843
  H   3.87328361090508      4.47881700302399      0.39431999629644
  H   2.08420074951558      4.79168347478956      0.72200170473708
  H   1.42866988477163      4.31155487453684     -2.44038155935671
  H   0.42810112766868      3.63580097942395     -1.12362462648082
  H   2.33068037085628      1.92880473588120     -2.84015005092963
  H   -0.45609583663143      1.22954712317681     -1.76600482332101
  H   4.63966286456636     -1.71724128086656     -1.84980791790074
  H   6.40983649692359      2.40082666971599     -0.18813961955839
