23
Coordinates from ORCA-job 2713optt
  Br  3.33810669114695     -0.01665822820893     -1.71734587532460
  C   2.83817194422663     -0.13442363083566      0.07013471006777
  C   3.67209697008763     -0.42087749351452      1.11541869638621
  C   3.08148937223485     -0.48896508365050      2.40810805255206
  C   1.75911071716978     -0.27681071356764      2.63009130055114
  N   0.94314987988917      0.02171653807448      1.59301471085964
  C   1.38187594494284      0.11548757578512      0.27408658262822
  O   0.59914486920537      0.38227661357228     -0.60632637536523
  C   1.46144745904304     -0.44270843562465      4.06117207523236
  N   0.39607768651509     -0.35502962061342      4.73390350353475
  C   2.80166473481991     -0.79702698281726      4.71079465956855
  N   2.99931519803813     -1.02997407517338      5.93231011897278
  C   3.78740083055878     -0.81281724231809      3.61968175540056
  C   5.09572297553504     -1.06626373013996      3.54056388567536
  N   5.72013221938179     -0.99844552196597      2.31004650302778
  C   5.14426087817196     -0.67942080401882      1.07158977428891
  N   5.80470826634087     -0.60716853485879     -0.00849511639649
  H   -0.04625164041311      0.19166675891176      1.71801173154005
  H   -0.41991061968012     -0.11709197924286      4.17092296896787
  H   2.11530919082518     -0.94441165536722      6.44236745317680
  H   5.71658161653661     -1.32891244305728      4.38507837503549
  H   6.70988193294584     -1.18212900602003      2.27997787261700
  H   6.79551288247774     -0.80201230534865      0.12689263700298
