22
Coordinates from ORCA-job 2717optt
  Br  1.48122182944892     -1.37665318398197      0.39825747862605
  C   3.26102409732249     -0.78427147498480      0.27934376735486
  C   4.28292268009635     -1.62402336411943      0.02564311355494
  C   4.49458582100822     -3.03578326663738     -0.20716405944272
  C   5.82590255217116     -3.16773890082407     -0.48199899217787
  N   6.50210488567660     -1.93360859081148     -0.44298186543613
  C   5.61611878008664     -1.05041963035144     -0.13799638918473
  C   5.79695885763538      0.38820307628805      0.02600862027873
  N   6.87624275122280      1.05318299749600     -0.05878172681165
  C   4.54804490284928      1.12411624049675      0.35095459677442
  N   3.39349580186235      0.58990343514229      0.46919136544261
  N   6.53294336896379     -4.30206103989421     -0.82052920048835
  C   6.14757468851108     -5.43786572450468     -0.41953916929845
  N   5.06451137358266     -5.76100598100979      0.40447249471952
  C   3.73838446797016     -5.31230034700063      0.31090509464160
  O   2.83135782229319     -6.03195179353694      0.63698253324625
  N   3.53662014617463     -4.04358406508634     -0.17531674101606
  H   7.65513193343699      0.42436738057766     -0.28025505484506
  H   4.64438098332181      2.19587625318190      0.50045422081552
  H   6.74267278661610     -6.30560559799551     -0.69161302841891
  H   5.05520299186319     -6.72157614999462      0.71779809024137
  H   2.56359647788616     -3.77420027244936     -0.16183514857593
