28
Coordinates from ORCA-job 2721optt
  Br  1.18077559359666     -0.84393070456309     -0.08337471234094
  C   3.00532526828358     -0.44893927783707      0.06222446717669
  C   3.99044008006059     -1.32782782146769     -0.16827924098284
  C   3.83687358501746     -2.75957455545825     -0.57531880881477
  C   3.68502034134493     -2.94304755622644     -2.10646190526601
  N   5.04334623971196     -3.52241577496405     -2.18303942076786
  C   5.27901231631557     -3.32601350869102     -0.74188303906908
  C   5.66948075387933     -4.56915536870963      0.05722220660959
  C   6.40657450796679     -3.99626868985104      1.23675370906946
  C   6.72476714874591     -2.72049110430504      1.05352869621141
  C   6.24682486383200     -2.20196084377247     -0.28345159128950
  C   5.39305097284886     -0.96394562147095     -0.20658522740335
  C   5.77490788940186      0.32006447225876     -0.30113985151742
  N   4.85038276253813      1.33610358102071     -0.19192929146364
  S   3.41942258784575      1.15749997252549      0.62309702216956
  O   2.54167045698711      2.15801521105789      0.10626542738151
  O   3.67811172574829      1.09518448612569      2.02372128551723
  H   3.13716006199915     -3.31506452309771      0.04589963574678
  H   3.54430146700880     -2.00438293942894     -2.64500022860817
  H   2.91011561535103     -3.64693845249531     -2.40821787214980
  H   5.68542917771025     -3.02757603780647     -2.78939674252639
  H   6.31839381665952     -5.20923604740469     -0.54819757597315
  H   4.80000421967671     -5.16913422908467      0.33282155603407
  H   6.66507420792170     -4.57559419818242      2.11339146251408
  H   7.27171686096108     -2.09853091860576      1.75018596681896
  H   7.08791108831315     -2.06865087251088     -0.97385846001443
  H   6.79547075635219      0.62090416808317     -0.50225985871599
  H   5.03243563392155      2.26490715486190     -0.54271760834600
