24
Coordinates from ORCA-job 2727optt
  Br  1.89630793427916     -1.87109836873525      0.67132112522648
  C   3.47980821002689     -1.23971590526970     -0.13562903092496
  C   4.25664688467697     -1.98327472715418     -0.94520966696259
  C   4.54883562195268     -3.49905530981506     -1.12716435080753
  C   4.52032495562965     -4.36231713983326      0.16249981154531
  N   5.87105152926386     -4.25267488215060      0.75351969463213
  C   6.63345707908555     -3.83871529100725     -0.15168820026688
  C   8.00028978694272     -3.11516950756711     -0.06983014359874
  C   7.56359389272379     -1.87583485675914     -0.84334618743047
  C   6.47929895368953     -2.22935799121178     -1.56230989570828
  N   6.02443347402370     -3.56631045043938     -1.44330120136512
  C   5.47228650984498     -1.29997733636079     -1.28452215539489
  C   6.04233816726859     -0.31021330141652     -0.55284617833753
  O   7.35795767536198     -0.61853507610494     -0.29721300016496
  C   5.18989956172954      0.55169839845134      0.24072114807954
  N   5.42071560246729      1.58669322434727      0.93751186937681
  N   3.85775843818213      0.04231019201429      0.21007251439314
  H   3.96909382089031     -3.94099673275378     -1.93362028132395
  H   4.30577309448269     -5.40503643258807     -0.07743721390509
  H   3.78508603913139     -4.01952975911892      0.88599626481038
  H   8.79594303017117     -3.68025584567881     -0.55321904817204
  H   8.26481118742084     -2.90617674646463      0.96314449260696
  H   6.38507618744669      1.88676222619914      0.83338699906530
  H   3.22521236330787      0.58678161941714      0.78016263462696
