27
Coordinates from ORCA-job 2729optt
  Br  2.41520417196233     -1.21945706492473      2.39464028076087
  C   3.73305435047470     -0.71203798760948      1.15962152860106
  C   4.48042318139307     -1.58324803402907      0.46730642079344
  C   4.66375946211417     -3.07258964310813      0.40268947555807
  C   5.08711733522601     -3.16485400375345     -1.08256525398851
  N   6.18131481317346     -2.15102246953832     -1.03228698457300
  C   7.03229389721419     -2.78708798197057      0.02839520577474
  C   7.90844911435113     -1.84241097018861      0.84538736769097
  O   7.27598867387057     -1.67768370247429      2.11678284499917
  C   6.28267990275421     -2.57061703112771      2.32310813559798
  O   5.69304434594705     -2.64617982562052      3.35534791991470
  C   6.04021792053529     -3.37402854475754      1.06166373768537
  C   5.47705038304132     -1.04558887075945     -0.42558589059030
  C   5.68058629489216      0.26823619750122     -0.60507090457156
  C   4.85106944925535      1.21805740628463      0.12919594108036
  N   4.86869099628926      2.49338430851785      0.08821049391538
  N   3.90748674775453      0.62702364197119      0.98282133321281
  H   3.83865100911523     -3.68454103630023      0.75176661794238
  H   4.30808455325186     -2.85345695659296     -1.77515076116217
  H   5.48722662764365     -4.13577574235665     -1.37258224421954
  H   7.62594433416552     -3.54902516138675     -0.47052287705426
  H   8.00805948888677     -0.86060048930345      0.38625071635619
  H   8.89925367169532     -2.26524748982416      1.01050318146415
  H   6.17148021888207     -4.43604607100303      1.26250187036407
  H   6.42530244804650      0.64900436106840     -1.29013052427739
  H   5.58084677214017      2.82451127018571     -0.55385435203666
  H   3.32971983592404      1.28028189110010      1.49255672076168
