25
Coordinates from ORCA-job 2731optt
  Br  1.33637343829999     -0.26357632521870     -0.81852350985417
  C   3.16888431062012     -0.14559386875007     -0.35665265275750
  C   3.83534115122735     -1.28174624238892      0.04955749224706
  C   3.29554564405655     -2.67713288720254      0.29524503045439
  C   2.80612718181252     -3.66778475157709     -0.83176157716022
  N   3.87406262238515     -4.68283725947343     -1.00086502369978
  C   4.74024415066476     -4.40191801430382     -0.12768905166503
  N   6.12735870230158     -4.63768365992857     -0.02949940440231
  C   6.80607919888391     -5.65851316613289     -0.65562000252408
  O   8.00140126126952     -5.68114978407703     -0.76764548884517
  C   6.68685069285579     -3.35591073365990      0.28060258079386
  C   5.66950778580768     -2.55449657567602      0.63935458399832
  N   4.49926892372464     -3.35777020178802      0.75298059221547
  C   5.20085441206234     -1.18918710174809      0.39735366566191
  C   5.87012712445179      0.02159918440974      0.33933005198668
  C   5.16926083593463      1.15033817327975     -0.06879206512052
  C   3.82792594960793      1.07601975519803     -0.42158194598619
  H   2.54409397852720     -2.62710989674381      1.08469299970461
  H   2.63786852307408     -3.18277545203619     -1.79347100501562
  H   1.87150065289731     -4.13305128340936     -0.52210181937146
  H   6.12841726774057     -6.43957600161664     -1.02617662584231
  H   7.72643613073043     -3.16973678825028      0.07922857702652
  H   6.91621672794538      0.08748852001722      0.60638431033861
  H   5.67305727071180      2.10659176731480     -0.11608474949763
  H   3.29119606240694      1.95951259376187     -0.73826496268544
