21
Coordinates from ORCA-job 2735optt
  Br  1.17502303139115      0.41986957902323     -0.52661235384654
  C   2.99691184617155      0.13118936655549     -0.23673721399157
  C   3.61965437299604     -1.04685128277712     -0.08410510398085
  C   3.07705521500572     -2.40163767088939     -0.03397790298376
  C   3.91119441749822     -3.46791567944099     -0.12142872592719
  N   5.24509241967677     -3.39999624836525     -0.19044169229112
  C   5.84343956975801     -2.14026518370755     -0.07052690963120
  C   5.09776752239675     -1.02303470994576     -0.00506419959269
  N   5.77151004833466      0.19891415905806      0.13343243867322
  C   5.07939390845489      1.26231222352777      0.01672023695096
  N   3.74567981451267      1.32461173813024     -0.24445910366745
  C   5.73586605668727      2.54903181720426      0.15745201972563
  N   6.21368705991901      3.58418957650717      0.26334749057806
  C   3.08999014472816     -4.71149031419673     -0.05132823761161
  N   1.86145117554592     -4.47183830589966      0.12014755131797
  C   1.73831007039323     -2.99475450438770      0.20522064698206
  O   0.69947133459226     -2.48752892124405      0.49015026374944
  H   5.80934536927308     -4.23227890940875     -0.20916233314407
  H   6.91987869369639     -2.10178224755710     -0.02763510210854
  H   3.26333095551552      2.20884893121974     -0.23655114089334
  H   3.49594697345265     -5.71559341340592     -0.13344062830740
