21
Coordinates from ORCA-job 2740optt
  Br  1.40763258465948      0.75836367937910     -0.60774029359339
  C   3.05667467997204      0.28350374007938      0.11672579782862
  C   3.37746470885671     -0.96511347990029      0.53971893920271
  C   3.04203627011495     -2.38438604532095      0.22468159202918
  C   4.22015588414951     -3.15045775604121      0.25431428536962
  N   3.91480879926143     -4.39311079937988     -0.18994664456006
  C   2.57972392245231     -4.44881718044886     -0.48282365829830
  C   2.00869139084285     -3.21487377519949     -0.24527615015910
  C   5.38115668055292     -2.30837930961132      0.56885863596489
  N   6.63238520478377     -2.11414409555460      0.26802757844642
  C   6.81369248044538     -0.67740241970228      0.42516644001656
  C   7.14341475866515      0.23234728832505     -0.56259928411583
  N   6.21369672557811      1.28926964222214     -0.70568695342244
  C   5.28995541440538      0.99391940523327      0.15664168761853
  O   3.95988149074627      1.31643667426474      0.04985426799143
  C   5.64585781388970     -0.09504468810160      0.99717879682973
  C   4.72551552675201     -1.06337997491388      0.95413634475981
  H   4.56320288785337     -5.15584465117878     -0.28581005590359
  H   2.13222012023196     -5.36319619914524     -0.83296892523256
  H   0.97297826272822     -2.96394991675312     -0.39811127053620
  H   7.88085439305843      0.11525986174783     -1.34334113023604
