22
Coordinates from ORCA-job 2745optt
  Br  1.20778966741614      0.17254822183322     -0.07600431914921
  C   3.05467915110123     -0.04548004952686     -0.07406754649570
  C   3.67080234286845     -1.26481416821809     -0.07430985460667
  C   3.05924049339657     -2.57568458027655     -0.07562488583728
  C   1.79379888991411     -3.09540240050133     -0.07657140279795
  N   1.80856201307901     -4.49236693139121     -0.07766560053056
  C   3.04895448144622     -4.87362214682265     -0.07742996120737
  C   3.93835942219551     -3.73679507517088     -0.07610100565370
  C   5.28491753009466     -3.63113302585972     -0.07526232468364
  C   5.89684994894594     -2.33579660229535     -0.07383376762245
  C   7.31865712821564     -2.21183951376131     -0.07300805170504
  N   8.46440165416992     -2.13973822206194     -0.07221579537790
  C   5.10940812776452     -1.21348548602857     -0.07329444819759
  O   5.76007213528470     -0.02200638981794     -0.07188230946712
  C   5.13632586038798      1.18497790490477     -0.07107389941170
  N   5.72914083633551      2.28637928805586     -0.06927576090331
  N   3.75364587733312      1.11757982707095     -0.07252714521231
  H   0.84390282747185     -2.59015741413155     -0.07653732278219
  H   3.33666722193178     -5.91615477736924     -0.07809093870894
  H   5.92487285348866     -4.50516828850455     -0.07561537254958
  H   6.73842213794196      2.17349085281683     -0.06842244923198
  H   3.27752939921650      2.00766897705612     -0.07218583786781
