22
Coordinates from ORCA-job 2746optt
  Br  1.09285153185784      0.02135546434892     -0.05342161685103
  C   2.97013755265205      0.04307745725714     -0.13888874206017
  C   3.71207964165388      1.17357750151935     -0.15483322396218
  C   5.14549442495806      1.07890258686430     -0.16770315240492
  C   5.89509733338781     -0.08309331608771     -0.16325868323352
  N   7.21188268593480      0.27544995636718     -0.17723717096109
  C   7.31095224148317      1.63316252769120     -0.18941764276661
  C   6.04418307734701      2.16938388970732     -0.19393752218659
  C   5.53934120343339      3.57621326313518     -0.22593445802310
  C   4.15349173273520      3.62282279587425      0.45499540940277
  C   4.29141541358409      3.39158372053543      1.89491937985090
  N   4.41407068097950      3.19497248367224      3.01707731648877
  C   3.17546289721559      2.56460028643584     -0.12014894590886
  O   2.09016082360152      2.89874090773753     -0.50268309300978
  C   5.41021881082634     -1.42893621582347     -0.15570084488124
  O   6.06761254458952     -2.43867741579578     -0.16190025097387
  S   3.60914837968353     -1.57061026206992     -0.14084291328330
  H   7.97140650280497     -0.38611816521914     -0.16627868671007
  H   8.27228713891655      2.11986464146635     -0.19154673212462
  H   5.41753544075013      3.92279291781540     -1.25514883303349
  H   6.21488298010048      4.26789496845163      0.27669742022949
  H   3.67528696150449      4.59004000611674      0.30419298640251
