26
Coordinates from ORCA-job 2755optt
  Br  1.06374670789390     -0.24376552204104     -1.55071112031184
  C   2.81980636169746      0.08213868926464     -0.92491523137110
  C   3.62634292013586     -0.94113343119666     -0.63013308550402
  C   3.32997946248647     -2.41673701948041     -0.70227221946651
  C   2.33528692169279     -2.90135853027776      0.36770885961228
  N   3.19484805376361     -3.33290395183224      1.45782927060940
  C   4.36921934850519     -3.96207008910169      0.89952239598288
  C   4.68289402914879     -3.08737714020290     -0.31964409270125
  N   5.54188623070152     -1.96027994818091      0.00323836470686
  C   4.98481875694547     -0.73736737462459     -0.17458961245855
  C   5.59690946746538      0.46277986785987      0.02923338908855
  C   4.96924631116960      1.72809283572805     -0.19180060550260
  O   5.45804822955761      2.81747285865789     -0.03415631680190
  S   3.23802472989894      1.74811496197120     -0.79227786891157
  C   2.67140801870824     -3.69689538639334      2.67346194048817
  N   3.15556312874851     -4.47622469040596      3.54931938913909
  H   2.99405290940249     -2.69602184009424     -1.69964128263238
  H   1.73852898495702     -3.73383494455626     -0.02535646538794
  H   1.65691290705498     -2.11552855898820      0.69624833422906
  H   4.16676777549973     -4.99777059470804      0.59242323294561
  H   5.19296920475973     -3.96726425990774      1.61410860125486
  H   5.11111518433517     -3.67506941962265     -1.13239108837009
  H   6.50074548351741     -2.07719944875403      0.28269131172960
  H   6.62211324401496      0.51300463587122      0.37313411749260
  H   1.72201887114513     -3.20270850648676      2.88257468186224
  H   4.03074675679399     -4.90309319249746      3.24939510027852
