26
Coordinates from ORCA-job 2759optt
  Br  1.22377883843928      0.69793106652597     -0.00375840241355
  C   3.02200973475648      0.07609636665988     -0.02345930691227
  C   3.32087749404563     -1.23444253031956      0.22093956034973
  C   2.23083165662889     -2.29018285327840      0.07496495694412
  C   2.68658378651196     -3.39096453686027     -0.89966465491751
  N   3.37678756505061     -4.31879174973061     -0.00332287703577
  C   3.20021979929271     -3.88147744255755      1.30543063330666
  C   1.91273708961410     -3.12369065107561      1.33705685297807
  N   4.08528613576460     -3.72611738208341      2.19793362932205
  C   5.42238201947369     -3.72660120709839      1.65691714304211
  C   5.60594927410717     -2.50726912114831      0.76224662500578
  N   6.83460004008746     -2.14334850967814      0.48316764252911
  N   6.84720814263719     -0.93110505541187     -0.08133295735934
  C   5.60144536137798     -0.54009427219663     -0.14952705532568
  C   5.13013600549500      0.75460334398062     -0.47298994408856
  N   3.89028761555127      1.07536725930225     -0.33894195589947
  N   4.72237813722812     -1.51276420444703      0.32723735944284
  H   1.35099404605792     -1.78240317409683     -0.29897185622211
  H   3.35879368672134     -3.01407847066063     -1.67126521653977
  H   1.82577569016830     -3.85680748569141     -1.38309768914621
  H   4.28673377208118     -4.63904395295116     -0.28757724168982
  H   1.81189113238705     -2.54028699677069      2.24580237266051
  H   1.02764316771154     -3.73240342412529      1.15170914051472
  H   5.72245719470960     -4.63255928613947      1.11972077263239
  H   6.14406765710105     -3.60307146385871      2.46142963666736
  H   5.84814495699984      1.49950573371124     -0.79564716784540
