22
Coordinates from ORCA-job 2765optt
  Br  1.04488807823558      0.08133465360978     -0.02593129018688
  C   2.92846600126307     -0.02554541577022     -0.01950998839470
  C   3.59120277913841     -1.21277304043586     -0.01659517844179
  C   3.04327112850783     -2.55425635346410     -0.01568745606897
  C   1.77312392793727     -3.10930050943910     -0.01574695566833
  N   1.91089945760623     -4.45797439488133     -0.01358597003079
  C   3.22595612391462     -4.83343903695069     -0.01199735428638
  C   3.93144011458267     -3.66606284951166     -0.01318939979019
  O   5.28968995361679     -3.56093038433717     -0.01195633126299
  C   5.77986721857550     -2.33183168276493     -0.01217987243711
  C   5.04880970769485     -1.19049606491229     -0.01396535510885
  C   5.82562887235840      0.07098770145632     -0.01368075271373
  O   7.04434566594424      0.09965618029099     -0.01212944162933
  C   5.01593401975135      1.28233443788435     -0.01518238208894
  C   3.66273217560839      1.22016601165318     -0.01808487211456
  C   2.94541350674041      2.46889082788156     -0.01918696170751
  N   2.41354723566384      3.48464917256229     -0.02020125802549
  H   0.80221992646367     -2.65307110347732     -0.01701564981986
  H   1.13969508337215     -5.10300014308228     -0.01312542563841
  H   3.54349405150344     -5.85991620933668     -0.01022375619281
  H   6.86117575801420     -2.30050912964714     -0.01082645115160
  H   5.53219921350704      2.23208733267230     -0.01399789724076
