27
Coordinates from ORCA-job 2767optt
  Br  2.18553862720545      0.44374960454283      2.18106581675909
  C   3.42643518063378      0.36362010659907      0.75635637307622
  C   4.47734039435636      1.19307441986857      0.71375715667947
  C   4.91155373954789      2.30580983029111      1.62778304402978
  C   6.44243997907756      2.12556138839830      1.50605722701907
  N   6.51854568370544      2.14664474684065      0.02252286272111
  C   5.89431295179225      3.46793630474251     -0.24895340609393
  C   4.77911043762625      3.62793141756960      0.81684222815346
  O   3.54938102184323      3.81829442230561      0.15598309587138
  C   2.45542107080426      4.05094896821663      1.00003179012619
  C   2.60505429778056      5.30158465735132      1.77219813853483
  N   2.74914631004728      6.26278486952222      2.37780085413409
  C   5.52243657193373      1.15336794522503     -0.30004907736640
  C   5.55296289329131      0.30913893537533     -1.32714953455091
  S   4.30768202899188     -0.85909291444160     -1.59532227484882
  C   3.15160593924773     -0.67108562336490     -0.25152619046757
  N   2.12559329820594     -1.41121601210513     -0.18274059877763
  H   4.47100682973052      2.31213247473014      2.62002382197478
  H   6.80261790910003      1.17944296819568      1.90426384088684
  H   7.01174870846346      2.95292574296618      1.92920524323704
  H   5.47835804092415      3.50366751583559     -1.25291092946934
  H   6.65660573697353      4.23824787698806     -0.14709756564450
  H   4.97480286438664      4.47627931279286      1.48116676777053
  H   2.29887810915391      3.22966716633650      1.70654144551897
  H   1.57196493936469      4.13002364441618      0.36849492056983
  H   6.36125549001413      0.29461327437626     -2.04587065373770
  H   2.06320094579798     -2.08005304357461     -0.94747439610587
