22
Coordinates from ORCA-job 2768optt
  Br  1.05799731758478     -0.08018793204450     -0.21351577070402
  C   2.92988226825804      0.00216259332239     -0.04261447692412
  C   3.61758706063032      1.17810298893906     -0.04043628352345
  C   3.06613103381234      2.52189044228390     -0.12103289416145
  C   1.82297933292594      3.04336024234402     -0.45297515239453
  N   1.87807437112754      4.38245546706497     -0.29147913206254
  C   3.12133560231518      4.78632699555134      0.13413141282545
  C   3.86589687782763      3.65043972258930      0.24129739360799
  O   5.15842766505924      3.55386306986364      0.65460878583689
  C   5.80747622004690      2.48481206031807     -0.00783652692726
  C   6.01329362926047      2.87245722953943     -1.47836477086357
  O   6.13598705699815      2.08554680055496     -2.36653081143314
  C   5.07822888427867      1.16386554523376      0.11049819321395
  N   5.82704610415225      0.14138780692843      0.27231498179175
  S   5.27613518738462     -1.39849533360644      0.31592017293596
  C   3.52377477312493     -1.33301600403325      0.10180989839600
  O   2.91279645414932     -2.37172423326594      0.10038702481859
  H   0.92731075197320      2.56749320907278     -0.80219720863197
  H   1.11089885563840      5.00469177152355     -0.47688660485247
  H   3.36265128887440      5.81478691181467      0.33238300603050
  H   6.79238899080994      2.37358952752768      0.44726147174750
  H   6.05870027376770      3.96719111847814     -1.64074270872604
