24
Coordinates from ORCA-job 2770optt
  Br  0.95551255271020     -0.12308135908611     -0.16390597732370
  C   2.83550616441096     -0.08684225382147     -0.00035349093922
  C   3.55005383233975     -1.24954680092611      0.26809554355476
  C   2.88401925404962     -2.59321546079945      0.46820598764214
  C   3.03241329133254     -3.43778684232519     -0.80601978390262
  N   4.46885169088341     -3.77908338389167     -0.80977474253549
  C   5.01130535200790     -3.64867424489079      0.55277875036781
  C   3.77251041659532     -3.40452947895331      1.40511755470528
  O   3.53935811926660     -3.77613506728801      2.51333771497799
  C   5.79965943508804     -2.33766370137206      0.58460939364276
  O   6.98121653965260     -2.27504371034015      0.78286821327605
  C   4.94387834786354     -1.13915408755309      0.31668025985047
  C   5.53763889102804      0.10271211407000      0.12124784209539
  N   4.85299715046407      1.20545530734462     -0.12027903101535
  C   3.52034271439488      1.12221660515831     -0.18582687983171
  C   2.81633363567124      2.33917528920296     -0.46367461767237
  C   2.23731819187081      3.36106874194369     -0.69575171008429
  H   1.86536657833004     -2.50107249826651      0.82824352304797
  H   2.76518032999564     -2.88069826741812     -1.70384601182900
  H   2.38517126036807     -4.31652834708660     -0.72823971888158
  H   4.66271250132438     -4.68465644657606     -1.20965847266643
  H   5.62904621517398     -4.47956249528997      0.88119123708677
  H   6.61749382403913      0.18514570906823      0.16455921880845
  H   1.72411371113920      4.27050067909688     -0.90060480237408
