25
Coordinates from ORCA-job 2771optt
  Br  1.02191855114333      0.29815970946811     -0.42812516792763
  C   2.88235867747359      0.17212092889063     -0.22004813546037
  C   3.53591410905611     -0.98159046724388     -0.45033059939520
  C   2.76702777499731     -2.22199819823228     -0.92144501946761
  C   2.04846424925065     -3.09537516086895      0.19899032948794
  N   2.99127043167365     -4.21213445359658      0.59947649910720
  C   4.23779632287096     -3.53400082904272      0.26061887227809
  C   3.85030951268664     -3.19292243643163     -1.19657274162380
  O   4.23876669542968     -3.71779298355171     -2.19329624725530
  C   5.72809613870558     -3.51796171269649      0.20213964452414
  O   6.61236141107115     -4.28213153449807      0.40477661665455
  C   5.98982693528465     -2.07374987167714     -0.38344242852072
  N   4.94162447889212     -0.99714783078164     -0.21437780305366
  N   5.56691596143488      0.11752059498295      0.23889092700081
  N   4.97915315965676      1.19124370408981      0.43810557967747
  C   3.58642808117686      1.36562789955334      0.20726363756142
  N   3.02619185774706      2.48464691996157      0.38908757220412
  H   2.11013392635786     -1.96825803294294     -1.74754208819697
  H   1.12203037953343     -3.50459572623578     -0.19529886444630
  H   1.82978780636723     -2.49401695540676      1.08033816873906
  H   2.83578828479890     -5.04309724202229      0.03694532020781
  H   4.13327911346698     -2.64569304821027      0.88156070269955
  H   6.20486003112822     -2.21537368132400     -1.44367498975936
  H   6.87187698607846     -1.66201803873345      0.09596606462936
  H   3.72181912371790      3.16553844655018      0.69299415033541
