26
Coordinates from ORCA-job 2777optt
  Br  1.21878326172423      0.15594657523335     -0.20275303248616
  C   3.07242185229625      0.05686115568255      0.16102734320514
  C   3.83798676158950     -0.99135905536169     -0.22060757241203
  C   3.21603279501378     -2.14318841124776     -0.99460035503347
  C   3.70964236613810     -3.86601441456228      0.82838782625509
  N   4.79729384113341     -4.38100671750764     -0.00395768648271
  C   5.33056764701308     -3.41563113453319     -0.96818736346152
  C   4.25136245992618     -2.84235730222433     -1.87847691890440
  C   2.65131479982033     -3.15476865484448      0.00408489075633
  O   1.47508339016058     -3.38363020779646      0.09450762329039
  C   6.06032723572076     -2.27757828737182     -0.25942918255497
  C   5.24816349786222     -1.05888332894095      0.13953743280063
  C   5.89138400019888     -0.06529382549998      0.81288298267088
  Br  7.73167092080956     -0.20167623225108      1.22803243134789
  C   5.32582401776144      1.19204215251711      1.29078783183822
  O   5.91811830435880      2.06867277970446      1.86179866176707
  S   3.58676668821132      1.44831962489868      1.02124897875792
  H   2.38394519581962     -1.77728652903805     -1.59093306516000
  H   3.24385135656264     -4.68082529874057      1.37874896214768
  H   4.12171424851281     -3.16181159097985      1.55936912552559
  H   4.47656177090000     -5.20575671187927     -0.49889115568841
  H   6.07001484899231     -3.95797319388350     -1.55865887215458
  H   3.76764537960366     -3.64009438278125     -2.44624971726814
  H   4.67377537730157     -2.13172477424199     -2.59405132176833
  H   6.86362155874917     -1.91881362597441     -0.90840527121289
  H   6.55612642381976     -2.67416860837556      0.62878742422477
