26
Coordinates from ORCA-job 2788optt
  Br  1.45595181625650     -0.93389714704251     -0.64039821252848
  C   3.26460187936119     -0.42105421071939     -0.49198324426700
  C   3.60051880397475      0.85287182150828     -0.22706825301240
  C   2.78992729603998      2.08713569617125      0.00293773612932
  C   2.57924414074296      2.27889023394945      1.54937010495935
  N   3.58351644657360      3.11664970941602      2.19708306017706
  C   4.96034060860908      2.83451610245377      1.79384751435883
  C   5.09899162397042      2.59143727768041      0.25778434921125
  N   4.93299339084993      1.17819332198325     -0.06216306986865
  C   5.95260138289636      0.24172662768814     -0.09965432715903
  N   7.19110640332074      0.43156571437697      0.14058688954317
  C   5.45095130995396     -1.09007536994233     -0.47233692770930
  N   4.21598752704470     -1.39223759080169     -0.64257322322291
  C   3.81477208411146      3.15879620187420     -0.34696650145557
  O   3.65428173353240      4.22488342054576     -0.85152188864220
  C   1.20827918861021      2.85537521528092      1.86132767820080
  O   0.31944389070688      2.93871009141906      1.06792354430584
  H   1.84594386616193      2.13856302111948     -0.53248168239449
  H   2.60770967398810      1.28647456323535      2.01773531478796
  H   3.37821043376169      4.09550228903474      2.02444270415391
  H   5.31912751899986      1.94150256558036      2.31087198558027
  H   5.57776634356351      3.67694566329813      2.09960152888214
  H   6.01065992405014      2.99924497928201     -0.17204757867115
  H   7.40904455605246      1.38858191396455      0.40501293465168
  H   6.20446761537889     -1.86066033305827     -0.59226045268049
  H   1.09456054148826      3.19935822170207      2.90593001667007
