24
Coordinates from ORCA-job 2791optt
  Br  1.03117575185335     -0.26050595328823     -0.28333381675172
  C   2.89868857658569     -0.09542691503374     -0.11432883107542
  C   3.55712458525440      1.10673325087744     -0.11790946477400
  C   3.01003655621677      2.43422571037231     -0.17336836811564
  C   3.76054526009280      3.56303744805403      0.13363115090868
  N   5.10949682248626      3.47779508967827      0.47915753947355
  C   5.78615258386176      2.36793010537672     -0.16557276043447
  C   6.00343526617689      2.63175944212003     -1.61692701659575
  N   6.20511742272675      2.85849403601156     -2.72217359396046
  C   5.00188586866682      1.08710422483343      0.00958886970366
  C   5.63930488657666     -0.08600934053695      0.17780606731069
  N   4.95316611643414     -1.25396359712290      0.21039404485233
  C   3.57470351611562     -1.37366217698350      0.04912152688730
  O   3.05422812327417     -2.46888036742552      0.07127294122566
  C   2.91328814195095      4.68465782202207      0.09580403981389
  C   1.66222930653857      4.20875391611954     -0.23793267251752
  N   1.71999164013540      2.86900163607474     -0.38983871960116
  H   5.60804057457303      4.35204920066247      0.38988161124376
  H   6.77325162749794      2.24592895350123      0.28212292921784
  H   6.71464672188812     -0.15820956813580      0.27241110685549
  H   5.43422564840660     -2.13219407686838      0.33875015903346
  H   3.17630417852637      5.71191479637511      0.28300914105352
  H   0.73944905988741      4.74332736431066     -0.38572798626162
  H   0.95151176427350      2.26613899900539     -0.62883789749203
