24
Coordinates from ORCA-job 2792optt
  Br  5.19242250619374      1.60529931790153      2.90395415234876
  C   4.47194464656662      0.78405523753815      1.37137822047729
  C   3.50161403439270      1.36657357941361      0.63453724518502
  C   2.72950420701561      2.54877976818233      1.00099611352051
  C   1.38590008287122      2.74948537968169      0.87587666897233
  N   0.39572624514171      1.84719003336241      0.46753110485247
  C   0.00632469397641      1.87191501741917     -0.94239968767080
  C   0.96680127375815      1.08964135482242     -1.85839928032063
  N   2.33936423852455      1.42399065106735     -1.48691549847888
  C   2.99577163430782      0.65889285456870     -0.56394881756892
  N   3.07159268481475     -0.61459362082275     -0.78575123893135
  C   3.81027095148039     -1.47599150680311     -0.04079956905253
  O   3.77994116107562     -2.66934465033555     -0.10215970193086
  S   5.09329375007656     -0.79156423267010      1.08289228788919
  N   1.09679002125028      4.05422706521112      1.23251622523427
  C   2.23362209444075      4.55210449756541      1.56750671650337
  O   3.27439091863249      3.70655223602724      1.46706390668379
  H   0.57145673696463      0.91002967764574      0.80669135123933
  H   -0.03032204351420      2.92136819332060     -1.24197129915601
  H   -1.00323491148440      1.47243454411311     -1.04604904368156
  H   0.78113125944609      1.33091103018583     -2.90539095903541
  H   0.85223278300586      0.01362463311169     -1.73605017594348
  H   2.44647930029774      2.41233601951430     -1.31358958490396
  H   2.44898173076490      5.54708291997908      1.92048086376808
