27
Coordinates from ORCA-job 2797optt
  Br  1.06882690464375      0.27512173706393     -0.54044537665662
  C   2.83970251327253      0.18576049865287      0.05697522808041
  C   3.55758011962160     -0.92714687563812     -0.11415307143689
  C   3.39666497418377     -2.26816759082543     -0.75501388254030
  C   2.82889447365252     -3.68274451962361     -0.68566020974471
  N   4.13659245269131     -4.34532063201341     -0.25230849998069
  C   5.38085740156837     -3.54192738227694     -0.46559346593533
  C   5.37155909119019     -2.97184718286707     -1.86389310938094
  O   4.18622005372338     -2.18744007333705     -1.92897044271043
  C   5.65901367473664     -2.29318580942701      0.53457185161933
  C   5.48883771852119     -2.70939081847046      1.92396329655138
  C   5.34439803261963     -3.03107735151295      3.06684721196635
  N   4.91028844837791     -0.96523567214753      0.32474532989425
  C   5.42495675169161      0.16432688152901      0.87245527933661
  N   4.79607166125536      1.26575778689733      1.04932974738010
  C   3.43729053101327      1.37539243250338      0.71107719652815
  O   2.80797596175241      2.37759674782812      0.92930511113385
  H   3.94128740525927     -2.59210845383598      0.10532441972733
  H   2.46083320588671     -4.03903509977692     -1.64818025834898
  H   2.08262200183655     -3.83049140531700      0.09192085711574
  H   4.26548503671423     -5.27541145116385     -0.62999510401676
  H   6.22066785180370     -4.21315271154880     -0.28857654365221
  H   5.32249237270475     -3.77059567138460     -2.60795085725520
  H   6.23714423357778     -2.33756387905079     -2.07954040890395
  H   6.70555750180094     -2.03242300804916      0.35940665392644
  H   5.21144962901328     -3.31649351901249      4.08372531266426
  H   6.46472999688727      0.09480302280457      1.18563373463881
