28
Coordinates from ORCA-job 2803optt
  Br  1.09238317461562      0.06094962829212     -0.71181777096131
  C   2.93137070425393      0.06786514550223     -0.26467361515322
  C   3.66555466437032     -1.12037208787151     -0.39088009298433
  C   3.03881746785532     -2.39763134072948     -0.89916432446588
  C   2.30002656896422     -3.17301141053301      0.22398797633634
  N   3.12014770569501     -4.06320558151830      1.02491656119880
  C   4.42197042729283     -3.55134128820677      1.37749263837805
  C   5.42405118172806     -3.41990339821190      0.18742904092748
  O   4.94673113679247     -4.01705371641159     -0.96854994277459
  C   3.99411834500961     -3.26954166620809     -1.71079706612807
  O   5.86870808869254     -2.08616867955053     -0.04197733596707
  C   5.00568392215614     -1.04655449192272     -0.01396649678915
  C   5.55108982644144      0.17142093385908      0.39795874976975
  N   4.84446319398316      1.27437322222363      0.47958752334318
  C   3.54349706100131      1.24145488465565      0.17112483173341
  C   2.89378519469987      2.57371171510136      0.36831885635861
  O   1.74115942634446      2.84785837934957      0.18898453086690
  H   2.27364962435923     -2.08889320287630     -1.61224760112735
  H   1.50379321966375     -3.76811718276359     -0.22449115584401
  H   1.81808431885969     -2.44291618738597      0.87881225834785
  H   3.22802293853218     -4.95385557312044      0.55751282275287
  H   4.87097193352136     -4.23533535292274      2.09768889572672
  H   4.31041469574417     -2.58923076981699      1.88299026930183
  H   6.34492954212620     -3.94868465658117      0.42348172136476
  H   3.41488632905369     -4.00875394524027     -2.26546066921728
  H   4.52432906782575     -2.64299379037052     -2.43450542696110
  H   6.60124098796810      0.20889454133488      0.66478118530470
  H   3.62811925244954      3.31803587192342      0.72446363666210
