28
Coordinates from ORCA-job 2805optt
  Br  1.06996903337586      0.01474344128737      0.55991785933362
  C   2.90968902010298     -0.03264018078238      0.20069853204376
  C   3.57192210467624      1.02096248563453     -0.31137512128221
  C   2.96022813330351      2.34584881801614     -0.68368960630836
  C   3.63178880632337      2.80478342424161     -1.98773166823128
  N   5.09101228864672      2.88554550815405     -1.99121539122539
  C   5.82501909873677      2.05999738667252     -1.03279684071290
  C   6.35184673856164      2.93468763845706      0.12528993025035
  O   5.32020258100349      3.82422209061525      0.54941692393417
  C   4.30857478458993      3.21761340076815      1.23494777291255
  O   4.49604112247470      2.57941728949547      2.22529294239608
  C   2.99319769766810      3.33781094031007      0.51593485316558
  C   4.99908861419173      0.89294307464617     -0.53125674452024
  N   5.64156955859040     -0.19202204988612     -0.27574426861495
  N   4.95339981203855     -1.21936511702541      0.22159478568150
  C   3.59614149082721     -1.28786527379195      0.51425327815217
  N   2.99475123873999     -2.30366239025809      0.98851944984241
  H   1.90649016954458      2.18406042219467     -0.91203493934724
  H   3.23928305773210      3.77960424916784     -2.27907712643432
  H   3.31309473829529      2.09412457963227     -2.75665152210570
  H   5.37154686848752      3.84829380758165     -1.87478356530265
  H   6.70309370671353      1.61647566581364     -1.50917588046845
  H   7.15647713433129      3.57433555548188     -0.23496110191527
  H   6.71108510805704      2.32709560553383      0.95668906995548
  H   2.84754143790789      4.35435306430670      0.14915447807758
  H   2.19939872458946      3.07343889515060      1.21244759398270
  H   5.51317781957054     -2.03988491617690      0.39444199739154
  H   3.62136911091948     -3.08991741524061      1.14589430934950
