26
Coordinates from ORCA-job 2807optt
  Br  2.51149225613011      0.61447679164462      1.62102922751388
  C   3.70104237516406      0.30679961930276      0.19927577537847
  C   4.34024150403268     -0.86610508728735      0.02345073851918
  C   4.38823758031646     -2.11641946869095      0.85302687319479
  C   5.07889413414866     -3.07903723602124     -0.13494995149192
  N   5.83860027273372     -2.24114881117671     -1.08610468848895
  C   7.30262741839423     -2.28344662611477     -1.03247234448867
  C   7.70089842594660     -1.49124499344089      0.20108018273601
  O   8.21428092644287     -0.41653498365305      0.20547640708735
  O   7.21710080650819     -2.09889488741844      1.31955011465488
  C   6.30090724423646     -1.35623756130522      2.12238558812957
  O   5.05862513647021     -1.97490366689040      2.10611995941267
  C   5.26234816805670     -0.96591468087935     -1.07069678277848
  C   5.53584680431498      0.07691518402303     -1.89630477703955
  C   4.84016865796997      1.32786727789108     -1.72177519160219
  O   4.95278043953950      2.32945206748601     -2.39570287371732
  N   3.92014740710513      1.34003272338369     -0.64247533637794
  H   3.40140633504822     -2.47923201130339      1.13242353205344
  H   4.31193713641179     -3.61865347717910     -0.69401491326357
  H   5.72108161555389     -3.79155891933552      0.37315228636217
  H   7.73072224691378     -1.82281934408862     -1.91921741058380
  H   7.62448741406902     -3.32089381653328     -0.96743072599795
  H   6.26797824510884     -0.32822749122005      1.75048585749567
  H   6.63836577959648     -1.38461799238275      3.15425943150579
  H   6.25012248373659      0.02140969822840     -2.70390385252059
  H   3.42365918605081      2.21193769296149     -0.52066712569293
