24
Coordinates from ORCA-job 2809optt
  Br  1.02830805656847      0.26183592055363     -0.01724869035257
  C   2.88706119458282      0.02181374482086     -0.03621397940216
  C   3.52303142218373     -1.18987168777757     -0.04155250725581
  C   2.85094222234384     -2.47663457877719     -0.03763590782370
  C   1.54863904254579     -2.94995676206382     -0.03249733741356
  N   1.52983417593029     -4.30767706381329     -0.03167163355933
  C   2.78352669050413     -4.69238523136279     -0.03592437969244
  N   3.62355481914780     -3.63339767778450     -0.03989975714875
  C   5.00993063143863     -3.60812295939452     -0.04597361494917
  N   5.79384935100078     -4.64058022300556     -0.04733517415565
  C   7.07520102841638     -4.08484712218910     -0.05445250167265
  C   7.07500579753784     -2.72106718794571     -0.05776068142476
  C   5.68512904397328     -2.34881897275115     -0.05190403830824
  C   4.98648747792500     -1.16275432685040     -0.05075743363460
  C   5.63805934754199      0.10766132177296     -0.05752168234363
  C   4.92407686678435      1.25045256405732     -0.05414154369893
  N   3.56458344386087      1.20238326414774     -0.04301173523246
  H   0.63104547815594     -2.39329457734056     -0.03013487950911
  H   3.15712625088886     -5.70256194478322     -0.03673409332093
  H   7.93258274091702     -4.74044284239590     -0.05648722898322
  H   7.93510496514227     -2.07176673447705     -0.06286549824461
  H   6.71709331926541      0.14800905286846     -0.06593819280213
  H   5.36196774482674      2.23729744026729     -0.05990656629889
  H   3.02885888851773      2.05572658422407     -0.03943094277272
