21
Coordinates from ORCA-job 2814optt
  Br  1.09997739648169      0.04214925241982      0.06682489629711
  C   2.96138552008740     -0.09773415397288      0.06779618904008
  C   3.64738265830626     -1.28168998587623      0.06895773946791
  C   3.09122012962349     -2.61394219261851      0.07015386505676
  C   3.93199186961312     -3.71566649800213      0.07107332082808
  N   3.10288885886068     -4.79773909237384      0.07220503009292
  C   1.82331768807169     -4.32097199670041      0.07195706236843
  N   1.78030691207145     -3.02072087683839      0.07079613322977
  C   5.35797497081107     -3.65827850702284      0.07088715699863
  C   5.92045146602052     -2.43663148146484      0.06988151498857
  C   5.10987415816289     -1.23712050953218      0.06906155357541
  C   5.69831100315975     -0.01173183935926      0.06823470949715
  O   5.02475452542252      1.13429705858109      0.06747333061861
  C   3.63320107929676      1.19672175572682      0.06716981664703
  O   3.13866448637979      2.27928512166080      0.06644395773876
  C   7.12036409249665      0.16876169237379      0.06810378050511
  N   8.26214018628880      0.27726634387588      0.06800418156922
  H   3.38089821930585     -5.76500318876239      0.07313489410397
  H   0.96782611078196     -4.97738060405335      0.07268387535780
  H   5.95789684897632     -4.55841358859982      0.07147230056448
  H   6.99617181978132     -2.32245670946109      0.06968469145419
