28
Coordinates from ORCA-job 2815optt
  Br  1.03332520959903     -0.01196391823389     -0.33621475420014
  C   2.91495304348894     -0.00876251607428     -0.15712347493384
  C   3.60023705016057      1.17465412596373      0.12932523514294
  C   2.92844431309434      2.46511671363320      0.32829729966264
  C   1.89158878543528      2.89674375843535      1.11750114010424
  N   1.71930008276358      4.24371525312115      0.99091631860905
  C   2.63165289774693      4.63179692285667      0.13535595628393
  N   3.39830145811497      3.60223982224062     -0.29470309095670
  C   4.50428438082407      3.63260605826253     -1.23179277868457
  C   5.84999428119132      3.42010274935799     -0.53582329194691
  C   5.76256789463006      2.38824685240604      0.59738398504192
  C   5.00467545572724      1.13632178836346      0.23295810764115
  C   5.67784847521437     -0.06105219056662      0.03463086124421
  C   4.98774583535635     -1.22513822525051     -0.24440107012835
  C   3.59639620643535     -1.21882547908253     -0.33858578753436
  C   2.91565331025240     -2.44207100254346     -0.62505051649805
  C   2.37921821617808     -3.48676564143776     -0.86433652479883
  H   1.26876464707815      2.30078651241810      1.76312580554319
  H   2.78100260969308      5.63898262732930     -0.22294408731030
  H   4.47631236015803      4.58784194336733     -1.75431058767400
  H   4.33586912741963      2.84712313427437     -1.97014025351259
  H   6.21077456682626      4.36300924473581     -0.12100517525343
  H   6.57371557670274      3.09680458168118     -1.28684890121729
  H   5.26592511079465      2.85395253008525      1.45204399517557
  H   6.76969330320851      2.12137127433912      0.91718402526319
  H   6.75720179167659     -0.08407704747575      0.12141519970834
  H   5.51144604100760     -2.16040297398695     -0.38747940119527
  H   1.88910796922181     -4.40735689821948     -1.07337823357571
