21
Coordinates from ORCA-job 2816optt
  Br  -1.24429677513632     -2.57303719793627     -0.82026109422610
  C   -0.76267136727860     -4.39107777203209     -0.88247064279111
  C   0.48986422696814     -4.77419692875728     -1.18030675893732
  C   1.71206599223300     -3.94062180504313     -1.48513766722351
  C   2.24276071299825     -3.04090995700173     -0.34162505904239
  N   3.34178944932605     -3.78492745816768      0.27018679871182
  C   3.56417899095533     -4.79760270570806     -0.44714781900453
  N   2.79443991958019     -4.94279736558544     -1.62039199197707
  C   2.20698365880253     -6.24648069262797     -1.92699049685097
  C   2.96911356720175     -7.37739957718149     -1.40182984271681
  N   3.58309227230786     -8.25209564186274     -0.99350077727951
  C   0.77968932697489     -6.16640402216123     -1.37750881834184
  N   0.05666711625680     -7.21140423787342     -1.23811236510020
  C   -1.24624742346530     -7.13497474537158     -0.78359023507285
  O   -1.94117022182741     -8.06767329840089     -0.53198333982221
  S   -2.03872540197496     -5.49484797644409     -0.57429756119028
  H   1.57317062070483     -3.38398345596212     -2.41322463681086
  H   2.62098451174157     -2.09646712463135     -0.73518795749753
  H   1.48222649627456     -2.81314349440144      0.40424513877863
  H   4.33159829416968     -5.53514346489223     -0.24173162911440
  H   2.13048603318712     -6.37681107795768     -3.01213324449094
