25
Coordinates from ORCA-job 2818optt
  Br  0.99594751966691      0.11379282524029      0.30158458355650
  C   2.86343844018008      0.06042767951930      0.10263069265662
  C   3.54650027310169     -1.12917028674937     -0.15859693954246
  C   2.90832710409064     -2.44060853208824     -0.29748893126441
  C   3.44200222256918     -3.57883013358717      0.25430252378448
  N   2.59677865431593     -4.58644885079608     -0.12209398717008
  C   1.60921497357361     -4.02657478955212     -0.87071252879299
  N   1.76780320486578     -2.73739321208589     -0.99865322615532
  N   4.57358620546136     -3.78103353346935      1.05288126950025
  C   5.86366685619955     -3.35606366263743      0.48119768579746
  C   5.75882589288266     -2.28428392845728     -0.60962653399029
  C   4.94666190133281     -1.06999604343488     -0.24676761595825
  C   5.56930450476351      0.15850952448986     -0.05380435033643
  N   4.92496881703084      1.28517246621617      0.19902360261432
  C   3.59861705644381      1.23603340460506      0.26911491286319
  C   2.93527978512975      2.48911370737706      0.54770338029097
  N   2.41746338161300      3.48701245517681      0.76934861171727
  H   2.69896632913713     -5.55233336883825      0.14334108894716
  H   0.80571215815743     -4.60562686847770     -1.29608715137986
  H   4.43734329046044     -3.36907154373006      1.96621256510317
  H   6.37583677037454     -4.22327140490699      0.05784967136318
  H   6.47538199527753     -2.99051198313512      1.30640433006683
  H   5.31640724949139     -2.73753731995832     -1.50023853063435
  H   6.77103994646645     -1.97689153686777     -0.87739043367923
  H   6.64992546741393      0.23258493614750     -0.12213468935772
