22
Coordinates from ORCA-job 2819optt
  Br  1.02751728671938      0.14360483068699     -0.05050970231484
  C   2.89541778211725      0.06487066524552     -0.05301470975817
  C   3.60006474193960     -1.09683967116829     -0.04367994580406
  C   3.08997518582053     -2.44835509789610     -0.03018644969027
  C   3.99999630331004     -3.49147846456869     -0.02151188063464
  N   3.25309911273919     -4.63431582507104     -0.00986995709616
  C   1.95047971582172     -4.24326857686126     -0.01178739297926
  N   1.81550846536959     -2.94267467195449     -0.02401990587985
  N   5.35550583934516     -3.44867562448001     -0.02362924988165
  C   5.86508507807253     -2.25671256027338     -0.03645851871135
  C   7.36250115982473     -2.28779957465517     -0.03961429987244
  O   8.09326889721993     -1.33561849883509     -0.05674696189194
  C   5.06821955919608     -1.03911246319114     -0.04652072428053
  C   5.65149986000054      0.18442217714002     -0.05776189997818
  O   4.95734805425268      1.30979032535777     -0.06601062266006
  C   3.56055335649500      1.36097431311397     -0.06533263692237
  N   2.98599294073478      2.47894953159292     -0.07464142383161
  H   3.61752497773262     -5.57297141027475     -0.00152655228119
  H   1.13857944111855     -4.95246830423724     -0.00368899346401
  H   7.74378557814722     -3.32252374707025     -0.02464571116218
  H   6.71809882754532      0.34678068885320     -0.06093204808970
  H   3.65997783647753      3.24042195854652     -0.08191041281553
