28
Coordinates from ORCA-job 2822optt
  Br  2.91584357678307     -9.63735513902886      2.56646379677447
  C   2.13654006796652     -9.71422361167406      0.85834635500342
  C   1.92288050382785     -8.61808639032859      0.10422446078078
  C   2.22546742717027     -7.22872092396212      0.60382503887588
  C   1.09967448168938     -6.77283093229696      1.54627921383820
  N   1.33933410174413     -5.39702175619848      1.91721371622873
  C   2.05529769181852     -4.56133900978448      1.11249560371782
  N   2.57361055203364     -4.83865100253530     -0.01454204340441
  C   2.42034223907000     -6.19408283075548     -0.51089557128988
  C   1.27281719139901     -6.29366770500373     -1.50230725540088
  C   1.26022182716795     -7.66201390403584     -2.14295778821649
  N   1.33491128589953     -8.75453506193698     -1.15106539852292
  C   1.00186787410453     -9.99156362945250     -1.66904199355022
  O   0.58101553295475    -10.14964485093771     -2.77711141052600
  O   1.16456586871364    -11.06087570003141     -0.85795584051987
  C   1.74391810132468    -11.03651860383718      0.39909848071992
  N   1.88383937285943    -12.09794649156960      1.05219193144205
  H   3.14220128798548     -7.27973327731879      1.19189415194386
  H   1.08842918817557     -7.39670336247522      2.43882245697008
  H   0.13055054098748     -6.88465298434769      1.04957552117015
  H   1.06084348514520     -5.07265275555326      2.82548050589156
  H   2.17491252849585     -3.55627603823233      1.51088765586657
  H   3.34299205377841     -6.44107923975348     -1.04646484967266
  H   1.39485959666795     -5.53986162455632     -2.28005475337036
  H   0.32440483810524     -6.08783372066240     -1.00040587383856
  H   2.10649246670151     -7.76987431690761     -2.82682831481659
  H   0.35667139304431     -7.82844804195961     -2.72176654006899
  H   1.52949492438609    -12.89780709486387      0.53159874397433
