23
Coordinates from ORCA-job 2825optt
  Br  1.01236913583025      0.08940167240468      0.16393982407436
  C   2.89123860996946      0.13190035350180     -0.06265667458614
  C   3.58262950693321      1.30395484794798     -0.15517558726202
  C   3.52943573111726      2.77148046910721      0.00894803403938
  C   4.83307749194307      3.25707053760781      0.08270696331602
  N   5.27381635782327      4.53441084937287      0.39414983756062
  C   4.63144915218394      5.56798454618639      0.05031879074540
  N   3.43198612573772      5.62288007710742     -0.66934778638855
  C   2.31163060744671      4.88972932995459     -0.18543272271607
  C   2.33906734474736      3.59352597420815      0.11375623552630
  C   5.73041780936173      2.11362620690813     -0.09889614725477
  C   4.95414215310885      1.03431415428824     -0.26925277645016
  C   5.67066725065590     -0.14750543977511     -0.13601385724419
  C   6.97015497495333      0.31165858920208      0.06226249496189
  O   7.00077375359185      1.66776942880768      0.09764262241193
  C   4.78350023631466     -1.27923868003387     -0.08494931860575
  N   3.48923170386631     -1.10589617439016     -0.07344707101554
  H   5.05592662307474      6.53720059272597      0.30756169332252
  H   3.18996138622947      6.56767605202103     -0.92365522855713
  H   1.40750692621963      5.47198764606874     -0.05996745265425
  H   1.42391846964097      3.13126286791264      0.45966699271725
  H   7.92647042365231     -0.16761242395903      0.18083731887878
  H   5.13262822559792     -2.30458147717529     -0.03499618481991
