22
Coordinates from ORCA-job 2827optt
  Br  0.98277351269398      0.04268947460217     -0.09077602272648
  C   2.86511495035687      0.02195054738424     -0.09419576812926
  C   3.58173016705499      1.16034882567800     -0.09533212369337
  C   3.22138211321622      2.57242398265766     -0.09465447597915
  C   2.06668662867240      3.27755352214703     -0.09406220789350
  N   2.10842482914091      4.63540790922852     -0.09367755578057
  C   3.27203631523592      5.43132729701153     -0.09347839158308
  N   3.26194602300115      6.70825856054713     -0.09258590058780
  C   4.50626695756124      4.67280932425469     -0.09454788299115
  C   4.45370845322563      3.32667247850933     -0.09527262934479
  N   5.49154486920784      2.41034864241290     -0.09676796038616
  C   5.04054031439824      1.12166533799213     -0.09702664396281
  C   5.82583241546106      0.01004527100847     -0.09861597196793
  Br  7.70017900846412      0.20061656648339     -0.10132555993970
  C   5.32833261101362     -1.34093985953753     -0.09820389187845
  O   5.97788363026871     -2.35283211864902     -0.09935566910272
  S   3.53243658466792     -1.56515975201320     -0.09539424245136
  H   1.08454919329704      2.83162977114772     -0.09399948714163
  H   1.23255663762280      5.13427039220638     -0.09334031953413
  H   2.32151685029089      7.09588517186908     -0.09195886927075
  H   5.42801481633487      5.23555823952688     -0.09481117099873
  H   6.47254311881354      2.64147041553245     -0.09761725465651
