27
Coordinates from ORCA-job 2831optt
  Br  2.44186630274146      0.50920255936717      2.14967732108583
  C   3.83770619384187      0.41495630288966      0.87627505724390
  C   4.34128891379580      1.53730384739142      0.30290848037052
  C   3.90758935591747      2.95575656334461      0.50776030733771
  C   3.94600520911923      3.62513695412132     -0.87313131075857
  N   5.32426517334830      3.62732102253374     -1.34019114361416
  C   5.98819130791828      2.59753471136155     -1.10477148047590
  N   7.38985381905660      2.60852510516423     -1.00040914203129
  C   7.79350105258746      2.66603246787099      0.35240828542810
  N   7.25646465368941      3.23378030603532      1.34149047672089
  C   6.16385041305358      4.20346787794129      1.31723520596404
  C   4.73726912851515      3.68522543127104      1.59597242415297
  N   5.37070574158759      1.38345923056576     -0.59940268977622
  C   5.88981628285411      0.14288640530306     -0.96322172362596
  O   6.77791011367244      0.02688406808983     -1.78860177649270
  C   5.25178905650033     -0.96508884121072     -0.26159010433829
  N   4.29864505242385     -0.82467536590249      0.59230974976465
  H   2.87850155191935      2.92970010758849      0.86396819814745
  H   3.61098331562775      4.66017773738906     -0.81526715287789
  H   3.28997461464032      3.09682405163357     -1.57179407141195
  H   7.82895246345127      1.84124221338985     -1.49788472512248
  H   8.70672161213288      2.09744611608682      0.52558333959494
  H   6.18052634372287      4.81619132216674      0.41460583006648
  H   6.37843008326831      4.86900961655356      2.15542025638286
  H   4.15583730514424      4.56714600562414      1.87616718627828
  H   4.76792593770706      3.04126499245038      2.47873617345771
  H   5.62042900176295     -1.95871080902043     -0.48925297147091
