27
Coordinates from ORCA-job 2832optt
  Br  1.08793417706794     -0.20092172750590     -0.28665874166073
  C   2.95825453257658     -0.21939111209735     -0.11070228608484
  C   3.63798753056006     -1.32959007550992      0.24765589016010
  C   3.03656303851330     -2.67250596207192      0.56786595170952
  C   3.13765535049847     -3.62239458204582     -0.63289915513336
  N   4.49332103369473     -4.06106859133614     -0.95095309393194
  C   5.70227773967851     -3.55229717478411     -0.55252393541888
  N   6.83476894690110     -3.79306643859041     -1.08177048454443
  C   5.71437740207943     -2.61997113585779      0.65088487845345
  O   5.07727926397076     -3.22772964324756      1.77904121386675
  C   3.72255273655851     -3.30173298146268      1.76104122279381
  N   3.06226315359656     -3.88050027699900      2.65911695443681
  C   5.06954537222872     -1.30881842744816      0.32673539596541
  C   5.72552247604798     -0.16541972102174      0.06771179673256
  N   5.03138152011003      0.95634507972061     -0.27405291423230
  C   3.64096327622514      1.04706466365778     -0.40231394675613
  N   3.00973861287951      2.10331185499519     -0.72991633171869
  H   1.98342938048225     -2.57928556371992      0.81612008775227
  H   2.68972650310933     -3.12005853089422     -1.49538942100574
  H   2.53858289892539     -4.50450145935307     -0.40046460778577
  H   4.55004744987359     -4.69175637531289     -1.73574562523131
  H   6.75594548051125     -4.37956344847406     -1.91198687061091
  H   6.75821433018903     -2.49836722881237      0.92320221361562
  H   3.68178844362759     -4.27892853824070      3.36453091890403
  H   6.80280861554343     -0.07533948891316      0.10066556803023
  H   5.54725415194373      1.80268577632279     -0.45688848224274
  H   3.62881658260699      2.89380110900254     -0.89330619606279
