25
Coordinates from ORCA-job 2837optt
  Br  2.26160880090016      0.04514290794589      3.14937733288912
  C   3.44553854479643      0.05853686025060      1.68042304788653
  C   3.51384869656053     -0.96734632430697      0.82417407940169
  C   2.69795487333507     -2.24192370079343      0.83084129513350
  C   1.28714116550719     -2.04618961943480      0.26074339581502
  N   1.38226359459278     -2.10965603129011     -1.19690194828970
  C   1.72920349062157     -3.35349360612913     -1.71744815642452
  N   1.35171266580517     -3.91547678443875     -2.77632511536729
  O   2.61552720076100     -4.00466508906698     -0.91326646085422
  C   3.45251279430290     -3.17278837195656     -0.14321437152217
  C   4.31036729730115     -2.23819635071543     -1.01702431983625
  O   4.77651608242756     -2.50956204461183     -2.08252580663699
  C   4.42796080804813     -0.93710540059003     -0.28864960914762
  C   5.25119592155286      0.05943021768328     -0.64126406768312
  C   5.34501587361217      1.32183564196994      0.08135547374935
  N   6.04909874138414      2.33403917131397     -0.20890166524012
  S   4.38422451197525      1.51112375397904      1.57712796016811
  H   2.63534298625917     -2.65976474490939      1.83477740126338
  H   0.62357983604432     -2.82409757619934      0.65030663577191
  H   0.88473100310026     -1.07699659350866      0.54808013959771
  H   0.64137373303310     -1.65378170283242     -1.70591338653849
  H   0.62791122954342     -3.38241463786125     -3.24827814310694
  H   4.12897960783851     -3.84049399295565      0.39218158787142
  H   5.87977686476445     -0.05485761583723     -1.51907798023955
  H   6.59461367593269      2.17570163429528     -1.05459731866074
