20
Coordinates from ORCA-job 2838optt
  Br  1.05551757100342      0.55872509214231      1.25760118988485
  C   2.78669879750100      0.22379501529918      0.66944507662057
  C   3.25689889892284     -0.97993860609094      0.29670791887664
  C   2.79936084004526     -2.31524283518229      0.18898504390663
  C   3.83870472141254     -3.06030914039799     -0.28358604153992
  N   3.44427284413505     -4.37209117563547     -0.40330251115047
  C   2.21818865352979     -4.34104380610176     -0.00402861618371
  O   1.73364585038078     -3.12414900484843      0.37884879874634
  N   5.00206649913358     -2.34217903202807     -0.52158041448401
  C   4.67901429011013     -1.13147398154443     -0.18558704303205
  C   5.41300533537777      0.08832143640344     -0.18959748999008
  C   4.81100637431615      1.21759723579343      0.21859819751023
  C   5.73243331530015      2.38579934872301      0.15075882839954
  O   6.93011393261200      1.81439460300567     -0.34291453074548
  C   6.80120458346703      0.46125537428643     -0.56601223769378
  O   7.68955392222034     -0.19875911325892     -0.98420248001456
  O   3.54969434057052      1.33695809531001      0.64164175989150
  H   1.52630905623711     -5.16405267793117      0.06643141723197
  H   5.90879662279202      2.83260841358666      1.13154201748815
  H   5.37651355093249      3.15578475846933     -0.53674888372236
