27
Coordinates from ORCA-job 2840optt
  Br  2.02455346411182     -0.83861845548941      1.34058749453676
  C   3.32305786912292      0.07615138027709      0.34942016826822
  C   3.08102622796915      1.10718716539256     -0.46241747686069
  C   2.13764813730420      2.20227764558825     -0.21306497650477
  C   1.17503828815792      2.94164747866127     -0.76118743948582
  N   1.29080903281737      4.24743928126694     -0.24250798950996
  C   2.50973792036178      4.32382331019221      0.41571594083487
  O   2.85907184464724      3.03712316871296      0.65182347810457
  N   3.26277025499907      5.29503463532430      0.69148600396849
  C   4.60525995316236      4.86523438780536      1.12713379705215
  C   5.47434968444155      4.38913326530222     -0.07513810722506
  C   6.24152317726400      3.04432843460937      0.01992356363923
  C   5.40305659211060      1.79097360531453     -0.09410868718927
  C   5.51448476686972      0.70811256426328      0.67174354120282
  O   4.58234772886410     -0.32095524799899      0.62516493121001
  C   4.30738479333271      1.71087527267921     -1.08368066687916
  N   4.27914476565039      2.17531941006782     -2.25861746220742
  H   0.44096689557288      2.68517368879740     -1.50295274691159
  H   0.91745922346023      5.05423938411850     -0.71288254622872
  H   5.07868648843919      5.72529208964297      1.59560665862946
  H   4.54765745352481      4.07611191757702      1.88259098927891
  H   6.22637474887956      5.15363474166823     -0.27639107249458
  H   4.83456950009988      4.36810186687511     -0.95835255715888
  H   6.81504393018429      2.99982592793732      0.94835076008769
  H   6.97588774058122      3.04630894745336     -0.79195517056287
  H   6.28029688887755      0.51339480517345      1.40882325699412
  H   5.16779262919344      2.61582932878763     -2.50111368458852
