21
Coordinates from ORCA-job 2841optt
  Br  1.22487301572604     -0.15742915945415      0.07926933918015
  C   3.07616150659823      0.02575491398193      0.07654073869222
  C   3.73058780886217      1.20286422315435      0.07605296016328
  C   3.16388218621193      2.54105139863252      0.07705413409322
  C   1.90705684125638      3.06135064783484      0.07762364014940
  N   1.96368134708064      4.44671272932874      0.07872737356867
  C   3.27312208740062      4.91328305039520      0.07882001131196
  O   3.62169354862809      6.06783481798613      0.08018219161582
  C   4.07552523468949      3.66882942500134      0.07755837582060
  C   5.41143433950255      3.54760393661409      0.07626714950166
  C   5.97526711546066      2.22975678240436      0.07453628747594
  Br  7.85882944867759      2.06273329149164      0.07236126655253
  C   5.19182091732986      1.11993755284172      0.07455139783205
  N   5.72469728622867     -0.15401667553588      0.07338643989246
  C   5.02849694928465     -1.33027957398414      0.07370603639778
  O   5.52241753273674     -2.41229232161495      0.07241527825143
  O   3.66864378907612     -1.19656522500480      0.07524514165356
  H   0.95113960710941      2.56934261870755      0.07731858953097
  H   1.16818706175284      5.06216040750572      0.07959042121124
  H   6.05284008037666      4.41972364543287      0.07646078161568
  H   6.73064229601063     -0.25835648571910      0.07233244548938
