22
Coordinates from ORCA-job 2843optt
  Br  3.03572747302268      0.20388573143457      2.96869022536255
  C   3.69061074595087      0.16123855451403      1.20395562229957
  C   3.34499453240856      1.08254529208749      0.27005588524196
  C   2.66398617595907      2.33500637371289      0.55775048877477
  C   1.69417954320623      2.94171393621019     -0.15569666816696
  N   1.11200260099997      2.61912180612301     -1.34374925988118
  C   1.66672151848667      1.88543313073364     -2.39594410526384
  O   1.08733595320818      1.89202241103332     -3.45792376354345
  C   2.92115702510977      1.14078822891883     -2.22916916811374
  C   3.63206484332083      0.78673296778748     -1.13852263970648
  S   5.09856076146725     -0.13020958632650     -1.43334364658741
  N   5.29357047109752     -1.09157191523941     -0.11040374410144
  C   4.59431080375448     -0.94498142669624      0.94806282689938
  C   1.33932983802240      4.18917447162337      0.57920016171763
  N   2.06379271492260      4.39464231408176      1.60192008858178
  C   2.99670582458265      3.29295188780835      1.64202189495880
  N   3.99172637179412      3.23530288162331      2.40778101615135
  H   0.29493390533461      3.13904621077027     -1.63558921578562
  H   3.24727148049942      0.75091898996144     -3.18613254856254
  H   4.76767486884883     -1.65270624994007      1.75253045920904
  H   0.55458077189162      4.87186097729549      0.26716445309569
  H   4.00576177611162      4.05708301248277      3.01434163742013
