25
Coordinates from ORCA-job 2844optt
  Br  1.19870756724197      0.10894869831163     -0.81017028536911
  C   3.05006084555130      0.09206205043668     -0.46729079822666
  C   3.75907237692160     -1.05719842327899     -0.50481435437020
  C   3.13519436317291     -2.39057119561424     -0.85411028170705
  C   2.42221370848688     -3.02476967215311      0.34319035208079
  N   3.38957387617620     -3.59003654750583      1.27247451268148
  C   4.65343800857969     -3.98628982475221      0.96903166864503
  O   5.35054641246650     -4.62894186014308      1.71623403701343
  C   5.17737428175082     -3.50103744867538     -0.39380061885609
  N   4.16101890627309     -3.26468995081106     -1.40176836555918
  C   5.92359150744317     -2.20334754913592     -0.16355438746132
  O   7.09049588578474     -2.14239350484652      0.08131703876309
  N   5.12211497468001     -1.02876726141605     -0.22965682803363
  C   5.74760930409614      0.17412107026343      0.04270042581516
  C   5.08522524017119      1.33641861806490      0.06982382475929
  C   3.65116351793815      1.40865904345660     -0.18153715311256
  O   3.01449304274991      2.44094206891722     -0.16808670550823
  H   2.39166067836711     -2.20099746506185     -1.62573554227834
  H   1.75139844339162     -3.80538079377570     -0.03097442524533
  H   1.81451747791563     -2.28084747876273      0.85838255715651
  H   3.05162961366893     -3.93517220293580      2.15993071813627
  H   5.91321987572603     -4.22599776380623     -0.73121143686837
  H   3.75581522513735     -4.13691512975779     -1.72093605302006
  H   6.80528681068723      0.08084771207635      0.23613508171911
  H   5.60457805562177      2.25835481090571      0.28742701884597
