25
Coordinates from ORCA-job 2846optt
  Br  2.08197675985835      0.33781391002398      2.00196283678792
  C   3.56025772213632      0.40429254401422      0.86648363984859
  C   4.36142650410105      1.45667418569736      0.70821504852253
  C   4.47534209121671      2.86670045445952      1.22232743990581
  C   6.03027713499781      2.97341536386722      1.29173511735986
  N   6.55078017883896      4.27566947280308      1.58617547915209
  C   7.05778407146177      4.58339133765405      2.80986188021734
  O   7.15089705507842      3.80575206647462      3.72680124978557
  C   6.22371002238462      2.56182959716837     -0.18485905805378
  N   5.35199294495797      3.56883240483878     -0.81513328204905
  C   4.20310159518699      3.71876491994506     -0.01310483113938
  N   3.15189999640008      4.37818531496913     -0.22461071738872
  C   5.47329417512774      1.24605409221683     -0.19393403471686
  N   5.72986544685900      0.18638573222883     -0.85673132539940
  C   4.84108032773046     -0.88011095641120     -0.69522011791477
  N   4.88835410837012     -1.98951468573945     -1.27350525854078
  O   3.77350008952636     -0.73251550030581      0.20730385591518
  H   3.90043584182844      3.13402436722938      2.10121044681485
  H   6.45265945184157      2.26333661967531      1.99906117585825
  H   6.45661782137290      5.00237645341993      0.89348453108306
  H   7.38966491041539      5.63060371845766      2.87784599930663
  H   7.23276524977888      2.55414301391067     -0.58262949195384
  H   5.22073344338688      3.52726683404824     -1.81602416872207
  H   3.16352384502934      4.84603539739354     -1.13059808774378
  H   5.69205921211380     -2.00440665803935     -1.89511832693527
