21
Coordinates from ORCA-job 2858optt
  Br  1.10880061010702      0.21476470668205      0.07903541360025
  C   2.96807042370345      0.00070319402714      0.08399226836446
  C   3.58601660658127     -1.21430401189372      0.08543330251879
  C   2.95830477337725     -2.51507234512777      0.08457729788665
  C   1.65452995710856     -2.98996126988448      0.08333192603296
  N   1.75247585057636     -4.32739010214106      0.08346489277085
  N   3.00626857374536     -4.79024162455263      0.08470710790624
  C   3.74975311840882     -3.69853230983695      0.08544682944197
  C   5.18883314507136     -3.66929384079300      0.08713006187547
  C   5.80081535592693     -2.47828312494689      0.08845968011096
  C   5.04934880730156     -1.23386837714212      0.08797637782231
  C   5.69030596789723     -0.03949422483230      0.08944355668010
  O   5.07174329258361      1.14561459035361      0.08890094313264
  C   3.69311662249860      1.26638312438710      0.08612901079602
  O   3.23053410142233      2.36378858588334      0.08588955805858
  C   7.11883383038075      0.07766167011650      0.09172288403389
  N   8.26399368166248      0.13813810208946      0.09378006849313
  H   0.69984425271581     -2.49845377413102      0.08244407317586
  H   0.99156104520653     -4.98676484645966      0.08280588056797
  H   5.74013074227697     -4.59935095821894      0.08739998909427
  H   6.88071924144772     -2.40904316357864      0.08992887763662
