21
Coordinates from ORCA-job 2861optt
  Br  0.99832244543303      0.00760991104864      0.06634984475021
  C   2.85849803822378      0.13024134758865      0.04618107708102
  C   3.56098745009654      1.28527167681582     -0.03242715268559
  C   4.96431183583990      1.18691811539219     -0.02825954625148
  C   5.66282421343577      0.01720719995046      0.04291348473761
  N   6.96271240826848      0.34757324745481      0.01032206348512
  N   7.13700169487053      1.69532545294240     -0.08001369441735
  C   5.91991208656088      2.19418669281529     -0.10303703947319
  C   5.44807528369778      3.60144664463546     -0.19117494642790
  O   4.01027331701894      3.67092807019551     -0.25262799465634
  C   3.06724484562481      2.70165841080753     -0.13974052805886
  O   1.91812136400432      3.01184118768658     -0.14866600107291
  N   4.99255994111197     -1.18208991433081      0.11589725618643
  C   5.70437274684794     -2.38390887424787      0.17574330222488
  O   6.90459935088703     -2.39106802178506      0.17671049280694
  C   3.55234503858694     -1.19292025098976      0.11957832688866
  O   2.98252783405475     -2.24782488631247      0.17725423963385
  H   7.74945470519556     -0.28068527916702      0.04468086603888
  H   5.81605586614033      4.09924838330311     -1.08797977153768
  H   5.75254187870147      4.18590654631135      0.67772916604799
  H   5.06025765539919     -3.26486566011482      0.21556655469970
