24
Coordinates from ORCA-job 2862optt
  Br  1.04051536369122     -0.33416945486250      0.23538470225292
  C   2.87599901409739      0.03998164180880      0.10224488227415
  C   3.38944170921405      1.29249260827842      0.15276565827484
  C   2.77817084648024      2.61152603139811      0.17764187769162
  C   3.55556799501574      3.70116170159881     -0.19161491030263
  N   2.74980270743982      4.77550766183526     -0.17049051840714
  N   1.48205809316642      4.46789644215985      0.18671216829645
  C   1.49464306085907      3.16896106648042      0.39517182382265
  N   4.89317009413492      3.68921543759927     -0.58342828081531
  C   5.63007489567220      2.58155004343699      0.02682847872621
  C   6.87251774720546      2.07951064866117     -0.73142301013850
  O   6.87912095028568      0.64252111513592     -0.56862817575212
  C   5.59041290451929      0.29856162238400     -0.32312939157237
  C   4.79707975329167      1.33672554558251     -0.02568375633129
  C   5.06678682506723     -1.05339504844751     -0.37147249698910
  O   5.66712600616234     -2.08048427613085     -0.59437764810250
  N   3.68977082831450     -1.04935551968340     -0.10080387007695
  H   2.97589092940476      5.72672039771991     -0.40396227199082
  H   0.59033242539110      2.66837956748074      0.69883274795767
  H   5.35336889886456      4.58428398091047     -0.48777910266001
  H   5.87120411920480      2.80972205787125      1.07470535157658
  H   7.81785372845213      2.45592340210444     -0.35049093177686
  H   6.76795029582604      2.30843381750623     -1.79512721454590
  H   3.26914080823931     -1.96867049082835     -0.11687611141161
