23
Coordinates from ORCA-job 2863optt
  Br  1.24771876654249     -0.34037997539852      0.22758352809545
  C   3.08315380993063     -0.02413745187042      0.11917872942118
  C   3.64068334115071      1.19213033372774     -0.01959402011022
  C   3.01057176486982      2.49879521350938     -0.06134122235635
  C   3.79318084200657      3.63199214804913      0.03909277408104
  N   2.97748566879103      4.69534332236033      0.06732791777235
  N   1.68897401243513      4.33303761048491     -0.00986923432295
  C   1.69227644251364      3.01760927323304     -0.09328318569225
  N   5.18038258576380      3.63637931375394      0.09812880805542
  C   5.83696863881897      2.43512444645293     -0.40811604460036
  C   5.09460771804801      1.15668823702532     -0.08517820334399
  N   5.80634555920455      0.09810749172188      0.02606774580281
  C   5.17944002235275     -1.12589060764067      0.22110276783534
  N   5.73697206077478     -2.23206581795417      0.40989498821167
  O   3.78676225450691     -1.15067377706039      0.19253591794416
  C   5.88976890109089      4.75250557586551      0.43336026575905
  O   5.38893472163121      5.81959653514829      0.69554232635099
  H   3.25830279091478      5.65375634606121      0.20589900499822
  H   0.75943908329472      2.48734155528516     -0.17178963655741
  H   6.84312325053009      2.36769033547069     -0.00181473493278
  H   5.90619724408187      2.48711269924869     -1.50112245703894
  H   6.74440408363354     -2.10169349368609      0.39324793303362
  H   6.97530643711305      4.57763068621210      0.44114603159396
