26
Coordinates from ORCA-job 2864optt
  Br  1.14687436490149     -0.22853489012999     -0.34041838979234
  C   3.01563133011492     -0.12208441382385     -0.07844146102646
  C   3.69133202914772      1.09738573749545     -0.06511457054650
  C   3.13018445426376      2.42649557897544     -0.19231291805769
  C   3.92509008831908      3.50199710019237      0.18402758184754
  N   3.17695409383329      4.60665800191655      0.06948322765175
  N   1.91753803032302      4.33442135621605     -0.36513195296332
  C   1.88489585175972      3.03267938572952     -0.52190908214346
  N   5.21073323300737      3.40726869969909      0.64053426572311
  C   5.94262716535395      2.26038345698801      0.10258647950473
  C   6.40829615330733      2.50105275849530     -1.33986415943185
  C   7.33068297155677      3.67767354831223     -1.49028495817332
  O   7.60801879763009      4.43811375194105     -0.60049248637739
  C   5.08177327664799      1.01546541460081      0.16449105925857
  C   5.66760112312742     -0.21872061741239      0.36822046566451
  N   5.00616305277430     -1.37396195693235      0.34155599868767
  C   3.70290810798199     -1.31402461345120      0.11621879787579
  H   3.43164710486111      5.55568235385568      0.28177896434806
  H   0.98075522396304      2.56819057518645     -0.87467035613495
  H   5.76249837102540      4.25391298828005      0.66040838631484
  H   6.82195227886310      2.11741365519365      0.73135784544674
  H   5.54581905100262      2.65944572251102     -1.99939975408607
  H   6.91947173816366      1.61552908703055     -1.73124662961084
  H   7.76371249423038      3.82279240458518     -2.49727306539176
  H   6.73513738620488     -0.28195304230411      0.56047456508415
  H   3.15870222763556     -2.25128204315059      0.09242214632848
