21
Coordinates from ORCA-job 2866optt
  Br  1.21649762450014      1.38631406160340     -0.46628243548430
  C   2.51241626736171      0.03770436116443     -0.45083079953249
  C   2.84194269096782     -0.74738903517793     -1.48841374495914
  C   2.38702142519364     -0.59630627528191     -2.85477409585827
  C   2.21911014159862     -1.64178174617461     -3.76483848397113
  N   1.81076583272613     -1.06556720273533     -4.91223928645988
  N   1.72936688044807      0.26312624135933     -4.83661271692454
  C   2.06247994813244      0.56443848272538     -3.59920617006106
  N   2.26302181944268     -3.00137435122074     -3.65992890463201
  C   2.89871987596832     -3.55307225902002     -2.69446764113170
  N   3.79648895489745     -3.00721925177880     -1.80838521421893
  C   3.83806056814980     -1.84581011185840     -1.29671127143281
  N   4.96987669833908     -1.59853169570307     -0.48741938642603
  C   4.85978345962051     -0.89780729181115      0.54738027110318
  S   3.32957933066971     -0.13612069607017      1.10700027451317
  O   2.63532441862619     -1.07470081291907      1.93393836805576
  O   3.66744569298781      1.16117356250850      1.60395465209956
  H   1.57529803290517     -1.54913984865983     -5.76433290398280
  H   2.08105006536997      1.59228187185095     -3.27929140427575
  H   2.82853567244476     -4.63259339559297     -2.61423084191259
  H   5.71121459964996     -0.68362460720797      1.19169173549178
