21
Coordinates from ORCA-job 2871optt
  Br  0.97429286512074      0.26393869687370     -0.03268704300438
  C   2.83589249294856      0.06510878382442     -0.03290797308035
  C   3.40876750430474     -1.14159148611375     -0.03302225988921
  C   3.04701440534217     -2.54970841509939     -0.03303734207543
  C   4.16556050381151     -3.37045094766025     -0.03311074564698
  N   3.76610857456797     -4.65651157156286     -0.03312667957108
  N   2.46877660477642     -4.67365986323251     -0.03309302725698
  N   2.02082078095560     -3.40993705865348     -0.03301910693203
  C   5.37606694356990     -2.53430777455443     -0.03315936622170
  C   6.73606435616996     -2.50703353286576     -0.03319243413836
  S   7.34609777907000     -0.88122499796225     -0.03309166862333
  C   5.75453373775414     -0.20448461433116     -0.03311258045387
  C   4.86206902642116     -1.21182727605347     -0.03312067882481
  C   5.23889948783445      1.16051624021717     -0.03305143825901
  N   5.88644568397259      2.24792650142528     -0.03302858898501
  C   3.69054709915530      1.28864288609170     -0.03296873327876
  N   3.14324144145856      2.42488134785172     -0.03296102893401
  H   1.02800940570726     -3.23551388346708     -0.03298045967987
  H   7.43913749348174     -3.32443811276126     -0.03323156991211
  H   6.89410313030793      2.09703509587028     -0.03308250205255
  H   3.86955068326925      3.14763998216339     -0.03301477318018
