27
Coordinates from ORCA-job 2872optt
  Br  1.20008393237368     -0.53210349513760      0.77823776900543
  C   2.98877319185723     -0.43912946038710      0.19224306224398
  C   3.86886834333442     -1.45608546369063      0.26179458644411
  C   5.14205024911971     -1.01153294762928     -0.11271753991657
  C   5.66636071089569      0.19042761431783     -0.46290588815367
  N   7.03305349756900      0.05272449853996     -0.36362590916270
  N   7.31249310210147     -1.13832985228391      0.04808932835057
  N   6.14534889944328     -1.82069126125556      0.18315201245243
  C   5.65294197609869     -2.96692468574955      0.96074611795113
  C   4.07606994780304     -2.89760554698541      0.76389828649641
  C   3.58739132523551     -3.92693855536406     -0.26801380453319
  C   2.11193596805426     -4.07734898566271      0.08556955591496
  C   2.12486164363857     -4.01181525645503      1.61707855469306
  N   3.36112692522487     -3.28367671567746      1.96276084179682
  C   4.70479519992448      1.27288478598032     -0.61079852562258
  O   4.85458006176015      2.42463421205351     -0.91987794273785
  N   3.38826164946840      0.79965206963185     -0.27731180818467
  H   5.90629557910009     -2.83008640665206      2.01166135460248
  H   6.06217797486327     -3.90874894513274      0.60441561467202
  H   4.11370252311628     -4.86815124140814     -0.09424015727218
  H   3.77464453062802     -3.60755247118187     -1.29216520574378
  H   1.67911449092276     -5.00219523238924     -0.29165795618810
  H   1.54326238833620     -3.24360154832154     -0.32812019708938
  H   2.15843798203216     -5.01284945150438      2.05185510880842
  H   1.24220705990762     -3.50473547389870      2.00881726320079
  H   3.20921835819900     -2.50965559039187      2.59420540834527
  H   2.69294248899207      1.53143540663540     -0.32408993037320
