20
Coordinates from ORCA-job 2883optt
  Br  2.60257979479412      0.25234147443382      3.05434360797167
  C   3.54395675353777      0.14159697451887      1.43527733251266
  C   3.35149941091685      0.95902140630840      0.34528294584991
  C   2.44368236032093      2.07527210250128      0.33921346185352
  C   1.68684249912375      2.54733727733644     -0.68011195919880
  N   1.43500949429443      2.03896170931291     -1.94049951765970
  N   2.25640114971225      1.58518149664116     -2.71183428619054
  S   4.02931617515796      1.64929498154395     -2.26935646736794
  C   4.09811966424057      0.61603112856536     -0.84807824350335
  C   4.94227196625198     -0.44552535376990     -0.89125580492728
  C   5.16824074389272     -1.27870610790388      0.26481955632710
  O   5.90458770045690     -2.23247884770584      0.35510428789817
  N   4.40206909465014     -0.89002101400200      1.38582539996299
  C   0.81488946605604      3.61034557817839     -0.10235558907235
  O   -0.08022976186338      4.22213205234804     -0.60011970818416
  C   1.33616341894137      3.70806822334869      1.32559066371969
  N   2.23287655471023      2.84455550109605      1.55671089179039
  H   5.48828169690391     -0.69639773926424     -1.78863508580723
  H   4.50307314568741     -1.49158405739408      2.19406360462349
  H   1.01536867221401      4.44557321390656      2.05101490940176
