21
Coordinates from ORCA-job 2885optt
  Br  10.23088158902179      2.63335540295243     -0.14441163095020
  C   8.94269912149538      1.27991893593592     -0.14049352363895
  C   9.26410985644003     -0.01441568398573     -0.04526668682021
  C   8.24855269416775     -1.04117151523949     -0.07339793512411
  C   8.73054163546696     -2.29331854276633     -0.04228368153726
  N   10.14678588175162     -2.33720198690817      0.09722310064425
  S   10.82911302664636     -0.81198611210782      0.13501023483697
  O   11.35602158603763     -0.54301920515113      1.43053943294564
  O   11.65894684928650     -0.65189457467520     -1.01805635939293
  N   8.14271274666168     -3.54454453380168     -0.21170491890124
  C   6.89165703369041     -3.71373020312952     -0.12361817407807
  C   5.81746156881819     -2.73686900786677      0.17450880093726
  C   5.83043458816497     -1.40699531311932      0.13646956541353
  N   6.92053933688076     -0.55964670178217     -0.10260158374887
  C   6.72397560688123      0.79253142447037     -0.18129362073289
  N   7.62449122431884      1.70300288594577     -0.22596744583014
  H   10.61137148738998     -2.95668781956152     -0.55936445484938
  H   6.53636223633982     -4.72669287649032     -0.30046135715028
  H   4.85439790582736     -3.17944656340985      0.39240303945517
  H   4.91160044813349     -0.86434214196320      0.32082917893918
  H   5.68034357657916      1.09015413265375     -0.20406198041746
