19
Coordinates from ORCA-job 2888optt
  Br  1.27793423195395      0.24763367889308     -0.80256387303804
  C   3.06763774584164      0.14466107980737     -0.27752125048447
  C   3.46340544128108     -0.67058726290697      0.73198078337888
  C   2.78053458698567     -1.59645917361012      1.59861896877602
  C   3.75396985988847     -2.36203798754411      2.17519178177919
  O   5.02089050469929     -2.01311613342301      1.76177172801411
  C   4.86732458613413     -0.97000192630773      0.92186772135723
  C   5.90127436350702     -0.33943996457101      0.30197625128754
  C   7.24777624085602     -0.76697815878816      0.33091769724212
  N   8.33873944017788     -1.12487600266730      0.34934851156504
  S   5.50947396545037      1.21760890307486     -0.37519616882443
  O   5.33239696751229      2.14463770663869      0.68685417921534
  O   6.30260912564029      1.54044783268401     -1.51017293992356
  N   3.96861021317475      0.86786938907267     -0.97947256425909
  C   3.24677688934715     -3.33385303042021      3.05605243388956
  N   1.93643544190253     -3.30834350854254      3.13733317593525
  S   1.28320222172886     -2.14063534629134      2.18004107568432
  H   3.75416783090908      1.23210064349223     -1.89934063923494
  H   3.81484034300946     -4.04763073859040      3.63531312763993
