21
Coordinates from ORCA-job 2891optt
  Br  0.95309053293838      0.24089853283250      0.51956643197118
  C   2.81914660922316      0.20446076905053      0.31889152851581
  C   3.48643948909201      1.27363917913290     -0.13575504372654
  C   3.03095741983349      2.61208645688842     -0.55513990462758
  C   4.29368196476729      3.27097611349388     -0.99910936305715
  O   5.37035739873107      2.38201880126855     -0.82885692050407
  C   4.92772326406011      1.22689757016307     -0.29667464637328
  N   5.77710593060827      0.31725567255021     -0.01219785135994
  C   5.38853394651706     -0.87907009799973      0.52760167098864
  O   6.12025924673642     -1.75463698019527      0.87015214572538
  S   3.59925770578729     -1.25984894499338      0.76543525486569
  C   3.65154670269532      3.73260522014412      0.26980759893102
  S   2.79486700885347      5.25626077292779      0.23885471513296
  O   2.24416145810959      5.43404734051800     -1.07769390629515
  O   1.97519237478329      5.37890863684937      1.40687729189532
  C   4.14953841727710      6.48416032503143      0.42404205255125
  O   5.27908420533602      6.15255964478863      0.55250486559236
  H   2.08193666546261      2.77555735099540     -1.04492265420092
  H   4.37762234995509      3.91416354921280     -1.86107489483541
  H   4.11803146899513      3.50288627285389      1.21894173307848
  H   3.77746584023777      7.52317381448684      0.40674989573193
