26
Coordinates from ORCA-job 2892optt
  Br  1.08420412921293      0.19741673290738     -0.37962198674853
  C   2.97028333615948      0.18173028957438     -0.23573307713458
  C   3.65875470760149     -0.95863025891766     -0.33792343787339
  C   3.11812877998137     -2.34131419346406     -0.43377551801372
  C   1.92194528032783     -3.03087575906488      0.23897828234141
  O   2.79508078852175     -4.13295946316146      0.61456394885915
  C   3.90009171654980     -3.22667185069326      0.51600142347763
  C   5.26401770033442     -3.60189386577939     -0.03518133137624
  C   5.81993974467360     -2.29180857050937     -0.66129258260734
  C   5.12824511415792     -0.98178744639874     -0.29523550526319
  C   5.86587822988082      0.10980153061203     -0.02917735425865
  C   5.36218548845344      1.45409736592898      0.22183077841190
  N   6.03734122289255      2.48063408817690      0.54076184047767
  S   3.62432927540281      1.76401923480697      0.01965966696363
  C   5.09211181274338     -4.71253538345921     -1.05194094798391
  O   5.10366951839441     -4.55146299853292     -2.24004914295019
  H   3.21959085935454     -2.73650919249313     -1.44941267042092
  H   1.09420020987321     -3.35358126681374     -0.38748163962865
  H   1.56081146372794     -2.51050215513102      1.12918114544345
  H   4.03182222555455     -2.71803255915904      1.47993184342625
  H   5.91051366940842     -3.97869037382225      0.76036700875671
  H   5.71853183772309     -2.40545419233205     -1.74516538596893
  H   6.88368675856941     -2.19796731750365     -0.45184765927602
  H   6.94783488253681      0.02561650949015      0.00149756868174
  H   7.02952118869205      2.25933980234792      0.60964117661186
  H   4.91428005927190     -5.71197870660884     -0.61857644394713
