23
Coordinates from ORCA-job 2894optt
  Br  1.34723384229829     -0.37882062800240     -0.73584486218282
  C   3.18620610345199     -0.20815185417609     -0.42711458943084
  C   3.90342093303494     -1.27646114307638     -0.08566334399598
  C   3.59204838837853     -2.70649163032267      0.13975055188470
  C   2.84392573181837     -3.89220087916712     -0.49187992296435
  O   4.08923689835969     -4.67014241169421     -0.37251322810216
  C   4.77731130534886     -3.44245727503742     -0.43218099796653
  S   6.12455613769451     -2.68867917924709      0.50081324695373
  O   7.37740790983875     -2.66469306211150     -0.16780580039169
  O   6.03243213592943     -2.95668300015288      1.89460375395749
  N   5.29177709845237     -1.16539275268725      0.15560464144923
  C   5.86300375538550      0.09577376749828      0.08763518931941
  N   5.20901236583306      1.14585420804858     -0.23761458664527
  C   3.83826219560789      1.10363459616501     -0.55974964540295
  N   3.18965519471939      2.12628556572855     -0.92946994163151
  C   7.25077266037853      0.20722169340217      0.43615774955483
  C   8.40097107631837      0.31445875511880      0.74237385469690
  H   3.58697604774782     -2.89181717130524      1.21752619958910
  H   2.57801366037459     -3.76228934444422     -1.54084372361917
  H   2.03650870493985     -4.33451653206065      0.08274283437969
  H   5.01123628023040     -3.16559575508141     -1.46739956369645
  H   3.81497809215097      2.93076251641871     -0.95398694531802
  H   9.42805348170785      0.40140151618643      1.00885912956268
