28
Coordinates from ORCA-job 2895optt
  Br  1.90260646682404      0.59350282966287      2.07500694295305
  C   3.11115420987327      0.35423658448736      0.64044502048849
  C   3.32505930918105     -0.85843330803602      0.09580128365010
  C   2.62434478355655     -2.17412733965782      0.39943707826211
  C   1.09914037348368     -2.18467965863172      0.33872912314432
  O   0.63880177941573     -1.77625059314223     -0.93083831306335
  C   0.97273181652331     -2.66843970261770     -1.94797739674384
  C   2.05754370959793     -2.23114643602833     -2.87366391887992
  C   2.31362993444245     -3.33283223951513     -1.87459231885974
  C   3.19863141441423     -3.16900596295960     -0.64834832621585
  C   4.58023859077221     -2.60629655577683     -1.00412052452294
  C   4.40658752428858     -1.11786855180079     -0.84373376080040
  C   5.12946070414640     -0.16534816456756     -1.43628823839209
  S   4.91255059369069      1.51927705880545     -1.13478472620130
  C   3.82823960649252      1.58645121743272      0.27074744451870
  N   3.64165650211863      2.67888348201883      0.88510205206671
  H   2.92604116844055     -2.49317054670688      1.40369124666460
  H   0.75844546636020     -3.20482937915413      0.55735790777564
  H   0.65277094685528     -1.51033497853036      1.05989133225307
  H   0.12549316991084     -3.22385718466813     -2.33396026923789
  H   2.46167514810642     -1.24821517266193     -2.67257213251787
  H   1.99720269219246     -2.50405478950174     -3.91754045207577
  H   2.35993154931360     -4.32400760358937     -2.30759128237220
  H   3.28760540046108     -4.15182188897634     -0.18454279374022
  H   4.90690891641313     -2.88898907575572     -2.00474832966608
  H   5.32961091367687     -2.95871980682720     -0.28925459592108
  H   5.91147206801362     -0.38911046801156     -2.15120053931787
  H   4.21446524143461      3.43818823470988      0.52254848675162
