25
Coordinates from ORCA-job 2897optt
  Br  1.08203429711285      0.06789175849179      0.38155392437639
  C   2.93740362939711     -0.06323833240874      0.08454865781991
  C   3.66358410620959      1.02397800777577     -0.35613923915137
  C   3.21714357515381      2.42456949316730     -0.64919636969314
  C   4.42067931881478      2.95755514678672     -1.44985505863845
  O   4.38823926484455      3.83130408631486     -2.25885064560078
  C   5.65655670607738      2.15862099754133     -1.02743753358057
  C   5.03520568217299      0.87073329411413     -0.55154337146663
  C   5.62734100111302     -0.35300231591300     -0.29270900852245
  N   4.91923216309757     -1.39884176967539      0.12942400335105
  C   3.61242601648791     -1.26031369492957      0.31159373300272
  C   6.37810610553564      2.83771750484609      0.15088252783767
  O   7.53742733357704      2.60288334063330      0.34485178846349
  C   5.58883202051899      3.77910657507778      1.04029726937251
  C   4.26026775637530      3.23778660812062      1.61184531597750
  C   3.09405751186755      3.26198603423754      0.63944036550291
  O   2.11321480091851      3.91838927115359      0.84049818114054
  H   2.28227280212358      2.51838898301745     -1.19723075620941
  H   6.37584632622976      2.04448327279709     -1.83640548490064
  H   6.69284606509350     -0.50085366568282     -0.42766172487347
  H   3.06553515994021     -2.13105811046800      0.65455731819978
  H   5.39363572049960      4.68965156671611      0.46296116254529
  H   6.24938329666721      4.04932311007702      1.86201474428732
  H   3.96334429199549      3.86286228936378      2.45149789017571
  H   4.40138504817603      2.22007654884523      1.98506231058412
