21
Coordinates from ORCA-job 2898optt
  Br  1.20515522289689      0.06120231614537     -1.15340138407102
  C   2.93685363909404      0.07295795583052     -0.40875827984485
  C   3.54056133529596      1.20016859830090      0.04177432930892
  C   2.94814050236626      2.53941045575734      0.13950086816105
  C   3.74875166705321      3.59888748911394     -0.17778612680164
  O   5.05889609427110      3.50759461846777     -0.46975673280130
  C   5.69030578741697      2.49413016662531      0.30668935408150
  C   4.98670313568548      1.15426395318444      0.22312312347595
  N   5.75841089299798      0.13148117409028      0.30124580298976
  C   5.30087990360961     -1.16794268377782      0.27235464874374
  O   5.92783130934945     -2.12347276094691      0.61525292444645
  S   3.66890352815478     -1.48104355574598     -0.45076876148485
  S   2.92784216432924      5.10684286172294     -0.15242448227712
  C   1.48259203286726      4.33478862058029      0.32958190471397
  C   1.62571127007526      2.98776639486790      0.47777899214767
  C   0.55676827907359      2.18182682713253      1.10807139642439
  O   -0.57774522656655      2.56000836828262      1.22757582738933
  H   5.71551085958725      2.80884719063854      1.35651570046151
  H   6.70367529425592      2.38500386489133     -0.06660663404253
  H   0.59139689954292      4.90361462417416      0.54090143565586
  H   0.87885540864336      1.20866352066451      1.51913609332320
