22
Coordinates from ORCA-job 2899optt
  Br  1.16390858582042     -0.01089747166132     -0.31708853547322
  C   3.01118223365223      0.17077569733599     -0.17231681789353
  C   3.63522487623447      1.26028848680122      0.28757604763043
  C   3.02667691801702      2.52726427018251      0.82949231049627
  C   3.74678113022684      2.89352972898946      2.11738602462861
  O   5.14490471104031      3.07174968241622      1.93713399888932
  C   5.72026601467937      2.52453694737718      0.76952641586325
  C   5.07658061699372      1.23626332005834      0.33755447061945
  N   5.81593597968858      0.25087663196469      0.00634604111562
  O   5.17552410867440     -0.86793520876163     -0.45045854201914
  C   3.81508033859253     -0.99078044436243     -0.60480548027631
  O   3.38333701523811     -2.00220750640238     -1.05530190447201
  C   5.55175824121668      3.55302072029341     -0.35042880863370
  O   6.47544681126199      3.92588271555701     -1.00934122524627
  C   4.16329524266276      4.17659272066017     -0.59011422502756
  N   4.03047229584512      5.22244829404344     -1.26316895582262
  O   3.03508074435112      3.58021348206308     -0.12232131531623
  H   1.97266681310723      2.36665939488920      1.04690007072594
  H   3.57225092015411      2.09978395224406      2.85046218585256
  H   3.35129949777552      3.83120715463330      2.50752943680117
  H   6.78478175720158      2.38363787436569      0.94141210309270
  H   4.94454514756580      5.53108955731275     -1.59297329553474
