28
Coordinates from ORCA-job 2901optt
  Br  1.29802892379999      0.50281736192738      0.10005949071857
  C   3.14623410367223      0.16174998211539     -0.04634591908836
  C   3.63558625698839     -1.08282385780588     -0.18612110490245
  C   2.87385605410914     -2.37924888520357     -0.27501261297875
  C   2.08181788843486     -2.79977233795682      0.98872336852766
  O   2.84916648462867     -3.81001450187502      1.62231752622498
  C   3.49604479731636     -4.53025756881846      0.59233443719391
  C   3.97559369949980     -3.45418163896548     -0.35622073101794
  C   4.57820552742287     -3.82425196652444     -1.72250023302958
  N   5.91632707898409     -3.41425442731584     -1.24080648817043
  C   5.33628081868595     -2.78445435946288     -0.04013254020628
  C   5.06512729773450     -1.30080168393753     -0.12554450639432
  C   5.99488157144790     -0.33363803884831     -0.15244748515871
  S   5.51040990960579      1.26830399071301     -0.59181096442540
  O   5.43293792665769      1.34786348143208     -2.01416850348079
  O   6.21305192966921      2.28154418909638      0.13006542669255
  N   3.95773023304047      1.26018598297180      0.02806127436396
  H   2.22383632549342     -2.39071375634086     -1.15205570353034
  H   1.10357846138144     -3.19964784699121      0.69990327179275
  H   1.93688009109054     -1.99082183027893      1.70207156810291
  H   2.79196127168798     -5.20528316477908      0.08548156845692
  H   4.30178636392711     -5.11795931637992      1.03044274841366
  H   4.18066310742795     -3.21754095035370     -2.54052582426315
  H   4.52440002823502     -4.87829073144778     -2.00013996931575
  H   6.42780044242630     -2.78697581651359     -1.85048137799394
  H   5.84122181877762     -3.05134700573645      0.89085504404551
  H   7.05946601744570     -0.48191496159029     -0.03182113678622
  H   3.64012557040893      2.12172965887004      0.45081937620902
