26
Coordinates from ORCA-job 2903optt
  Br  0.92238508336690      0.11593849471090      0.09382323415323
  C   2.81134080680136      0.01431541707970      0.08704506996144
  C   3.52754461563504      1.19940406155593      0.05464040383425
  C   3.09333904598947      2.64472881194610      0.00407083261075
  C   3.37259066525943      3.22204102927883     -1.40118373468570
  O   4.72970724869672      3.67510859885451     -1.39770579156908
  C   5.31473351875991      3.45507296324069     -0.11114227716312
  C   4.09186952872892      3.49647186784707      0.82119926564114
  C   5.88153209334965      2.06177452890634     -0.04835344209483
  C   7.07741668446704      1.40359105126205     -0.07989238796418
  N   6.85986266014527      0.03230713574796     -0.03585434610109
  C   5.50743258541201     -0.20497338248738      0.01941043946963
  N   4.83730441653833     -1.34260054527198      0.05506613484655
  C   3.50366147751976     -1.22571167248677      0.09331749038471
  C   2.85278668451091     -2.57278775728151      0.14404164221404
  O   1.68367245253631     -2.80287986936891      0.26895851258436
  C   4.90042569221549      1.04573831844313      0.01786737011773
  H   2.05688246071187      2.77592824359955      0.30303565382416
  H   2.72019492822042      4.07475517555971     -1.60153204301528
  H   3.23997205474047      2.47929286152752     -2.18889376711900
  H   6.04458187805905      4.24184214703522      0.06720723492476
  H   3.72392546579018      4.51888516621741      0.90435538365385
  H   4.28987611016791      3.09579851088979      1.81350366390190
  H   8.08523250251871      1.78249944307200     -0.13056363797493
  H   7.57413841765556     -0.67501036633880     -0.04509962161147
  H   3.60459092220324     -3.37753023353907      0.05867871717620
