28
Coordinates from ORCA-job 2904optt
  Br  1.14072810281069      0.02583346620069     -0.44943649733294
  C   3.00911678047209     -0.15886653702914     -0.32511516454610
  C   3.61605235073566     -1.29797168341730      0.10591084639297
  C   2.84472202902340     -2.52130275161913      0.53966217161383
  C   2.90029558329832     -3.57996699544009     -0.56690959914171
  O   4.18505788184338     -4.18521533351598     -0.43214020882328
  C   4.77362879809280     -3.78173011018884      0.80290975851457
  C   3.61189527671407     -3.26049047441508      1.63848402986887
  C   5.76266536872075     -2.65198390492056      0.54495878751359
  C   5.05454135664240     -1.38529374761061      0.11318088750423
  C   5.76231794670084     -0.30226473954338     -0.29663281588982
  C   7.27483588757792     -0.32955917614819     -0.32944171709517
  C   7.86692714861102      0.90561020051974     -0.83002815375484
  N   8.28155903210574      1.89492447758655     -1.23154769567643
  N   5.13171795768805      0.83305656115680     -0.69327110595686
  C   3.75372693112068      1.01926439226776     -0.75167783195242
  O   3.29335287969144      2.07438364621915     -1.12909551695587
  H   1.82626145900547     -2.26295547101418      0.81201092586221
  H   2.80433373629426     -3.15879860784326     -1.56762933215821
  H   2.12022573744309     -4.33178327166967     -0.41668891135842
  H   5.27962087392001     -4.64412681176664      1.23567766598920
  H   3.93060955907091     -2.61714781897009      2.45804261237771
  H   3.01086801535337     -4.07840279549302      2.03564249854604
  H   6.46020660333792     -2.98313352365045     -0.22892111411256
  H   6.34859770058831     -2.47597871885608      1.45419984337796
  H   7.61149291811106     -1.15528881145069     -0.96046699302674
  H   7.66419713412333     -0.52059044979485      0.67336190928484
  H   5.66844495090295      1.63677899040655     -1.00203927906465
