25
Coordinates from ORCA-job 2908optt
  Br  1.10797365937827     -0.15134349397002      0.27874316946013
  C   2.97124363229938      0.04738304263838      0.15142103575560
  C   3.58995174513880      1.24328494412246     -0.01663379180521
  C   2.96173000523507      2.55685831025826     -0.12281564833851
  C   1.73199528801413      3.00103597564888     -0.49423925909596
  O   1.69233656056908      4.35012422350246     -0.45743014210511
  C   2.91034957079439      4.78824235140731     -0.06730429142510
  C   3.72962723986261      3.74087460715126      0.15708301726067
  C   5.16114385791500      3.64970768572552      0.55859821455203
  C   5.80712556373808      2.49296926028181     -0.22956641197471
  C   5.86322157152601      2.82877003599705     -1.65949018148003
  N   5.91798555791290      3.10330360903914     -2.77051841782410
  C   5.04165312443532      1.19004977425895     -0.03882249573174
  C   5.71995541619761      0.03264822757675      0.08435737994724
  C   5.04313435686608     -1.24145747715013      0.23979556612398
  N   5.53114629789116     -2.41385969527642      0.35653737585111
  N   3.65340794184256     -1.11902028143007      0.26121451211610
  H   0.82952640048998      2.51475150652786     -0.81475372949823
  H   3.03645236057280      5.85461251914174      0.00084455421130
  H   5.25264040709247      3.41417797890807      1.62193679381148
  H   5.69666329795610      4.57908436094684      0.37056937974586
  H   6.83435004488165      2.34260033587739      0.10497474154048
  H   6.80202885689782      0.01629930442143      0.05718170624682
  H   6.54509676592167     -2.39063548600995      0.32448465303947
  H   3.14726047657101     -1.98646161959499      0.37283226961647
