29
Coordinates from ORCA-job 2912optt
  Br  1.22370627575694      0.18373726456986      0.26618517967421
  C   3.11426670593648      0.05027484825360      0.20726502047651
  C   3.72605325737266     -1.18893290292153      0.04752351680475
  C   2.94541308842483     -2.46404692082305     -0.14131478944182
  C   2.15069831914436     -2.95306916892508      1.10000105730147
  O   2.52123420207020     -4.30356628214240      1.31441724514340
  C   2.99932635102836     -4.82939984034147      0.09592960961335
  C   3.81772125165388     -3.68115390959989     -0.50326013786609
  C   5.17058510223326     -3.59042331876747      0.20494487373428
  N   5.82730252216945     -2.35610562414067     -0.17353695734727
  C   5.12739483863136     -1.18266394845798      0.01683380264758
  C   5.79518637726644      0.04225314806363      0.13842615956723
  N   5.18256413086732      1.20045810782167      0.28458134186449
  C   3.85394724204101      1.21499603477003      0.32402088972393
  N   3.98305977167524     -3.77349372909393     -1.94392180160110
  C   4.53920315435114     -4.85293489378381     -2.54371410878067
  O   4.82426585238366     -5.88236842826471     -1.97596371543960
  H   2.23454288945542     -2.30408105202040     -0.95686723635402
  H   1.07660466987991     -2.87893217089058      0.91480967834534
  H   2.39042512476305     -2.38300237232435      1.99758467534897
  H   2.18002117471800     -5.09195381851302     -0.58497758737052
  H   3.59146774887668     -5.71606780099097      0.30618629125609
  H   5.78797746935803     -4.43638447363755     -0.09266108005360
  H   4.98946262353237     -3.64554747204613      1.28564122705513
  H   6.81358393680939     -2.30172173088816      0.02584216064151
  H   6.88128471051088      0.05924762172256      0.11028781294446
  H   3.36428050494994      2.17183685232838      0.45135860614748
  H   3.92532786441952     -2.92373510799775     -2.48321629502129
  H   4.69409283972017     -4.70821891095877     -3.62440543901415
