26
Coordinates from ORCA-job 2920optt
  Br  1.18361834790270      0.19818002909457      0.00686703991629
  C   3.07700185602802      0.03295489596099     -0.16138162615166
  C   3.65667820765412     -1.23436616345414     -0.10072214704494
  C   2.87937240860681     -2.50399014878823     -0.01593234945777
  C   2.65220370629322     -3.06038853156780      1.39375659675077
  O   2.38499156081629     -4.43837912475980      1.20756215661835
  C   2.83955567447558     -4.87136014977309     -0.07120825836159
  C   3.58897357076504     -3.68235191042789     -0.67543307454825
  C   5.06402870261919     -3.75164463464289     -0.33551421211971
  O   5.67108505390575     -4.78816623048375     -0.32963514302794
  N   5.71019294433583     -2.52776239525723     -0.03148846038331
  C   7.01300415123133     -2.63060606838641      0.49999487374443
  O   7.66768212813816     -1.70248516965421      0.87419931941623
  C   5.05098836553568     -1.27439043376585     -0.15512143422756
  C   5.76446193036982     -0.09316648941992     -0.34207479893554
  C   5.05155086102777      1.08815382723140     -0.41721728925310
  N   3.72703746582509      1.15917073027459     -0.31015002840401
  H   1.90934145947195     -2.37182482812544     -0.49443260383366
  H   1.80688660582306     -2.59178741193922      1.89598349004539
  H   3.54871867224493     -2.92465863565970      2.01170707219432
  H   1.97696049580648     -5.13260625739958     -0.68806518012499
  H   3.48369426544039     -5.74209425986079      0.03857824796023
  H   3.51638274059323     -3.66268482990380     -1.76490197455027
  H   7.33884616020808     -3.67220377393463      0.54589663161329
  H   6.83764345269099     -0.08548219744279     -0.41634143161947
  H   5.56809921219040      2.02894016208568     -0.56292541621554
