23
Coordinates from ORCA-job 2926optt
  Br  1.24279931312677      0.56999907331275      0.34048178590060
  C   3.01182021083513      0.18072819546018     -0.11828436671988
  C   3.59618567412311     -1.05024211093747     -0.01281532767324
  C   4.96104146439478     -1.08045697004358     -0.37499928319096
  C   5.72517102754478     -0.02498743580032     -0.68928375233206
  O   7.04699361853962     -0.31066997914204     -0.77340113480651
  C   7.20714039360429     -1.62455682212411     -0.17949759925875
  C   5.82156510842469     -2.28808339267878     -0.23712360985572
  O   5.45669742778860     -2.97221283109188      0.94265608494846
  C   4.10586772097967     -3.41163477796654      0.84894976689926
  C   3.76938061687541     -4.14923048078676      2.05881526769374
  C   3.49043345330736     -4.76151732017521      3.04621201817750
  C   3.04950032905033     -2.28268775458668      0.58241451699400
  O   1.89209494596359     -2.48248862803106      0.82922004842096
  C   5.13592639968438      1.28862265127298     -0.84237509414921
  O   5.65117455009722      2.33202391406185     -1.15575951921076
  N   3.74485310849390      1.23700817651347     -0.55101476017058
  H   7.50941626245984     -1.50400781079757      0.86299629772924
  H   7.97582657668554     -2.14720015889934     -0.73989176395960
  H   5.72344036105262     -2.96587198335499     -1.09648006805429
  H   4.01131722000511     -4.09020176176597     -0.01424413331263
  H   3.24050186638119     -5.30494603705801      3.92612134073337
  H   3.29085235058200      2.13961424461908     -0.62069671480293
