25
Coordinates from ORCA-job 2934optt
  Br  0.96732276412107     -0.00688346363761     -0.01355625303281
  C   2.83907777716875     -0.09956979168467      0.02439314338539
  C   3.51386172679843     -1.25970613052642      0.03374845266273
  C   2.97405631572208     -2.66034842475901      0.01750009423654
  C   3.61285214422711     -3.37653394249257     -1.19181664381930
  O   5.03926703159998     -3.33176113353891     -1.11707501140075
  C   5.53677452335174     -2.64131019842509      0.02534064683625
  C   5.04675558026476     -3.37817979920470      1.28272655623637
  C   3.52275777514099     -3.37350369371861      1.25457160076607
  O   2.84046110364341     -3.90413732218823      2.08133579360906
  C   7.04670668025509     -2.69641466212612     -0.07469529105518
  O   7.76894790469485     -2.05357931599402      0.63126699704354
  C   4.96396489058853     -1.24592861077281      0.04403284680696
  C   5.60140087961650     -0.07592240110306      0.07684425003049
  O   4.93602783504093      1.09516439160955      0.08227672088652
  C   3.55464615020172      1.18238568310998      0.04183406698325
  N   2.98685600243499      2.30352042972258      0.02999498002883
  H   1.88961574157722     -2.71324916443742     -0.00786869840818
  H   3.29615284958710     -2.88946894856322     -2.11545338907758
  H   3.30146791798694     -4.42254306865912     -1.21635628818612
  H   5.40587127962829     -2.89198429085510      2.19088001702127
  H   5.38752212385499     -4.41592433608229      1.28524667000990
  H   7.42940925323568     -3.39815187698106     -0.83715334186974
  H   6.67160981582720      0.05869272663382      0.11909849067902
  H   3.66661393343158      3.06033734467414      0.05188358962748
