30
Coordinates from ORCA-job 2936optt
  Br  1.06311972713002     -0.31471340120242     -0.11992917459936
  C   2.95783044881788     -0.15642058554445     -0.00995989083940
  C   3.51111244216405      1.11255835074463      0.02602988079083
  C   2.66320977129165      2.37691241944859      0.15212290084865
  C   1.91579773064410      2.88767276501632     -1.14952416901108
  O   2.05798601325185      4.29547482549473     -1.30187854673961
  C   3.19328011086086      4.84098007460905     -1.97743024966631
  C   4.52876964548305      4.83075857396721     -1.18517330693158
  C   4.55261190177160      3.44053792037946     -0.58359001720503
  C   5.66403125411957      2.51389982020545     -0.14011428289440
  C   4.93214309607573      1.18190944729256      0.03321460648721
  N   5.70379274198112      0.10085238127194      0.08705870734647
  C   5.13241235424320     -1.09229122397086      0.10322866127022
  C   3.75760381801549     -1.29550151132875      0.02951658726163
  C   3.25221251968009     -2.69195000053736      0.01662954108645
  O   3.98364201331398     -3.64601472389983      0.02910861287627
  N   3.60226494877910      3.39948249086099      0.53977669088327
  H   1.92942559718502      2.21295846802294      0.94383854089126
  H   0.84611182267014      2.71443037573764     -1.04696581130386
  H   2.25606608089595      2.36620683456105     -2.05001713690958
  H   2.90004131221963      5.85667180393324     -2.23954658963879
  H   3.34797248712606      4.27746200578041     -2.90550274446481
  H   4.56280638191893      5.61041753647878     -0.42156846886782
  H   5.34346940530594      5.00941195953643     -1.88981569520656
  H   4.14894892090480      2.86114622651483     -1.42186347128272
  H   6.12802435201751      2.81810990100805      0.79831437052489
  H   6.44216487013509      2.35781369602368     -0.88974249869669
  H   5.77901844712529     -1.96075053221750      0.15725571275635
  H   2.15875495613565     -2.81845818296449     -0.00088503135014
  H   3.10837482873663      4.27843228477767      0.61541227258426
