30
Coordinates from ORCA-job 2938optt
  Br  1.28796542706547      0.38143065107869      0.48888386830058
  C   3.16189106494057      0.12459329774234      0.25964441264820
  C   3.73357042557184     -1.13465070319400      0.40772919478251
  C   2.96848548477664     -2.39935613506617      0.70403886861230
  C   3.18188612905056     -3.47607302639502     -0.37038165106990
  O   4.36318906326597     -4.22387723339260     -0.20644148535610
  C   5.53553457283886     -3.52400713779022     -0.54628039127212
  C   5.91995920594862     -2.42770284359581      0.45310151469792
  C   5.85886189488792     -2.96474611365416      1.90459021894600
  C   4.63909775559532     -2.54066582863046      2.72095685377399
  C   3.26246879943821     -2.89571051873719      2.15275887602417
  C   2.94534426554169     -4.37066220661271      2.30820352515967
  O   1.90752183814448     -4.86059387236707      1.96025747560619
  C   5.13047546118132     -1.15284394504240      0.26752507393604
  N   5.83061302724042     -0.05562093432901     -0.01486705796404
  C   5.14957392965360      1.07189721512940     -0.16192082408717
  N   3.83934106991069      1.21584720980255     -0.02933971244221
  H   1.90656067257083     -2.16716897766170      0.65427011921651
  H   3.16439839425532     -3.00616407983073     -1.36154663892119
  H   2.36648705589550     -4.19265001338016     -0.31254017880274
  H   5.44341848228699     -3.10367742302350     -1.55587662550799
  H   6.33233155666939     -4.26811912951718     -0.55590253608753
  H   6.95072261908740     -2.15748511422501      0.22238190445163
  H   6.74434458324164     -2.62124325556493      2.44068515312335
  H   5.91569355472143     -4.05506826197127      1.86527245212009
  H   4.67726712964611     -1.46162478947370      2.88371505858790
  H   4.71822058513795     -2.99096565720643      3.71448863761868
  H   2.52489768419221     -2.39958415062006      2.79436913186503
  H   3.71807409922248     -4.98595168085385      2.80989598926345
  H   5.71480416802045      1.96344465838239     -0.40767122722324
