26
Coordinates from ORCA-job 2943optt
  Br  1.26780869039281      0.34656230757079     -0.98299504133584
  C   3.04826806520844      0.22748207842272     -0.43403511800258
  C   3.73987739065158     -0.93001886776541     -0.44486420713652
  C   3.13129609329004     -2.26512729994852     -0.81512786858732
  C   2.42785625975014     -2.84603351339758      0.45316269974059
  O   1.34975704238797     -2.46247281496818      0.79295876071891
  C   3.20662943586449     -3.92018870923808      1.18253885206432
  C   4.71067466460572     -3.62837656705015      1.22538239823109
  C   5.30879791453801     -3.30974015803850     -0.17519722507378
  N   5.93783766308878     -2.00067397603242     -0.27263306762677
  C   5.14906871420655     -0.87376588242970     -0.07318264980737
  N   5.72020392567583      0.19114465368358      0.36020859028605
  N   4.97453970353610      1.31260974166965      0.41459160191036
  C   3.67231444910551      1.49022281067764     -0.00191072562070
  N   3.03263986762821      2.59264573981099     -0.00452320943737
  C   4.18898862051860     -3.27541309866915     -1.20177370372496
  O   4.10467172995915     -4.00808494083062     -2.14536481992615
  H   2.38059339371037     -2.15331812607525     -1.59522916740702
  H   3.02651702337670     -4.85113478192663      0.63194981734536
  H   2.78111497136648     -4.03948999982340      2.17683259188519
  H   5.22774830326880     -4.48113713254537      1.66232546998778
  H   4.89402071060765     -2.77252639970735      1.87869119865651
  H   6.03359649519493     -4.05835456969647     -0.48458952272438
  H   6.85245236379302     -1.91445935122315      0.14827075749179
  H   5.48098313145947      2.11815865834368      0.74439466252990
  H   3.60174337681459      3.36849019918689      0.32711892556290
