22
Coordinates from ORCA-job 2944optt
  Br  1.25439461594491      0.24840378185028      0.03921400659467
  C   3.08935343848117      0.04396960578428     -0.22352677046322
  C   3.76285346793228     -1.08518942555913      0.00852592832404
  C   3.37450751460027     -2.44950908530861      0.51993541799177
  C   3.53567836707056     -3.35315700694716     -0.71475669955418
  O   2.66896573774525     -3.90202658564819     -1.31854126995515
  C   5.03876502792267     -3.41575011102999     -1.02528121388141
  C   5.66705481877966     -2.47370011066801      0.04459631634704
  C   7.08511213352459     -2.63656907279857      0.27441005772268
  N   8.21199053151795     -2.75655953275904      0.43950084880634
  C   4.69483831301616     -2.79434723998195      1.23324698602798
  O   4.92996576197877     -3.20193769619321      2.31607143693038
  C   5.18599462795848     -1.07640779718618     -0.26169495440698
  C   5.82563944965944      0.01426318389548     -0.68926506409632
  C   5.05813229701405      1.23645166054536     -0.91859599053602
  N   5.44454135177762      2.36192407509841     -1.31870576453993
  O   3.68312111569983      1.15232882984703     -0.66439630088979
  H   2.44681491104232     -2.54940031116407      1.06935653856610
  H   5.25512333254250     -3.09700558454829     -2.04379421141171
  H   5.38564015381119     -4.44197778800832     -0.89248665485684
  H   6.89139069556765      0.03884402749320     -0.87338063202915
  H   6.44612233641264      2.36335218328671     -1.48643201069030
