29
Coordinates from ORCA-job 2946optt
  Br  1.52658062375026      0.56799650239812     -1.47445362490262
  C   3.38444999652246      0.17922982535945     -1.30160868530153
  C   3.78323728722304     -0.80778851758879     -0.42025373022334
  C   3.07795553770290     -1.71764005819672      0.50068921812482
  C   3.33506712048696     -3.15998264678089     -0.12842828520252
  O   4.55010825836038     -3.44003860278763     -0.88604001882686
  C   5.91331840760145     -3.25497442529495     -0.43409332430185
  C   5.68280372763306     -2.17482608317417      0.66957872932692
  C   6.13538738339490     -1.17795250272568      1.78205400341751
  O   4.85248887576837     -0.60728021494336      2.13559717767927
  C   3.54225044281119     -1.21869468027118      1.94245455472048
  C   5.10438995160964     -3.15379037037074      1.64540022713854
  C   4.99101340843882     -4.01917767629881      2.46694151456915
  C   5.12500107358509     -1.07285785868861     -0.30554787942711
  C   6.02611936805910     -0.34923884990961     -1.06812811340398
  C   5.51279258963214      0.61822973332434     -1.92048052248468
  N   4.21207775424144      0.88267211344314     -2.04002927669166
  H   1.99452329942708     -1.59453115033410      0.49431476773107
  H   2.58782341329379     -3.24337169850410     -0.91729412448083
  H   3.15237122690350     -3.93956232368827      0.60666372872822
  H   6.47098707387449     -2.90827822903992     -1.30102673114402
  H   6.32414297352987     -4.18765109455159     -0.05444189009306
  H   6.59537995689084     -1.66002826754308      2.64157420913235
  H   6.74509442328948     -0.34818530836346      1.43177181720767
  H   2.89559720621845     -0.36589230606298      2.14836796341428
  H   3.36066042472050     -1.98183230958631      2.69497564990695
  H   4.84003811222267     -4.78127632197485      3.19390596828016
  H   7.09453022622643     -0.51955128235156     -1.01208067730738
  H   6.17480985658161      1.21327460450633     -2.53838264558594
