24
Coordinates from ORCA-job 2948optt
  Br  0.98225748134177      0.12418967683561      0.27034817637505
  C   2.86469525351609      0.10664276373508      0.17758599822606
  C   3.55176839373120      1.26813778074538      0.11239099578104
  C   2.90377346778756      2.63312895338227      0.09250183423785
  C   2.85452754685142      3.18432645158949     -1.33382843339927
  O   4.17350462021067      3.70735447577446     -1.49458800373498
  C   4.78572098640754      3.71515800620510     -0.22237303420762
  C   5.71915614932035      2.52662117776374     -0.07686419746868
  N   4.93981510831561      1.28983364962633     -0.01138453869722
  C   5.58883919302630      0.10099015413418     -0.02353567993569
  C   4.94639309017044     -1.11514689237509      0.05360472724318
  N   5.79988682881791     -2.17395383360624      0.01100188886762
  N   7.02075403397777     -1.87549098565298     -0.08823553380336
  S   7.26170124169396     -0.18797946058809     -0.14179836519110
  C   3.49271099324562     -1.22478993405601      0.15314456451744
  N   2.81240093000556     -2.29680906586447      0.20812034380832
  O   3.75639862899269      3.58063207322875      0.71813829956183
  H   1.94990917934782      2.62198753704149      0.60614467662756
  H   2.12249052696810      3.98829061794481     -1.41862044352645
  H   2.66737115819209      2.42021462422001     -2.08628240323090
  H   5.30702880570297      4.65751300185994     -0.06248241990194
  H   6.30926158636981      2.63001214618777      0.83800873308792
  H   6.38922042984942      2.47823869412565     -0.93797285742387
  H   3.43041436615730     -3.10710161225719      0.17997567218721
