30
Coordinates from ORCA-job 2952optt
  Br  1.20408804908242     -0.17991224208939     -0.11287740411728
  C   3.06604662054340      0.08211914393841      0.01626175383152
  C   3.62474723062137      1.23201678538092      0.44269066241055
  C   2.94204007821862      2.49778743271904      0.86576471343369
  C   3.58968871178242      3.00524578917994      2.15683162563281
  O   5.01674097616111      2.98809341177357      2.12525979438289
  C   5.61801240236428      2.60149390632112      0.90915141318097
  C   5.51978202168072      3.71507479277864     -0.15098404060671
  N   4.22411320887847      4.35680762710047     -0.21167534775661
  C   3.00676631790168      3.56276519231383     -0.24531375826249
  C   4.14618751389132      5.64451075382558     -0.69836097018007
  N   5.05729823385015      6.42177789540823     -1.11460514872031
  C   5.05988112789585      1.28180427422613      0.44139780861947
  C   5.82085407475332      0.23829762941276      0.05859124074920
  C   5.21688821605370     -1.00767834292483     -0.38574495627931
  N   5.77100720475217     -2.09022124091414     -0.77170906900817
  N   3.81746635931372     -0.97922559782986     -0.37473497495756
  H   1.89063029758295      2.29742957894860      1.07200519851081
  H   3.28078565926443      2.37193965122833      2.99052177551002
  H   3.26766954864266      4.03046661608512      2.35443989304811
  H   6.67753209243460      2.47099423838185      1.13277890104278
  H   5.83169559164405      3.31049743424318     -1.12396839239540
  H   6.23697656175006      4.48310218980672      0.13975421862810
  H   2.87154558369844      3.07014977086980     -1.21663549052052
  H   2.17792618170348      4.25979114799574     -0.11272521495184
  H   3.12338779547129      6.02244650224030     -0.68928653775838
  H   5.97779200038192      5.98917125160858     -1.13341797851681
  H   6.90228054327862      0.29040746996216      0.07825215918849
  H   6.78207758997357     -2.00955698313244     -0.74418536104905
  H   3.37009220642910     -1.83159607885840     -0.68147651308889
