26
Coordinates from ORCA-job 2961optt
  Br  1.35248730216265     -0.26988642157201      0.88329977072248
  C   3.22734032103401     -0.25014817010295      0.61586188795967
  C   3.85371280607451     -1.34757366544569      0.06027039235728
  C   3.07197971802987     -2.58834413017646     -0.36602954246971
  C   2.36525988349851     -3.52444644747803      0.68703723632479
  O   2.80209015903360     -4.88722221699195      0.54915026657787
  C   4.17356830413718     -5.25730437824287      0.31838874416070
  C   4.86826282602022     -3.92725222854694      0.06777199863478
  O   4.04459422024324     -3.39455882943080     -0.94521081505701
  O   6.14663601167024     -3.71174268170418     -0.39068956874830
  C   6.20625755088960     -2.30764109556768     -0.79764450137177
  C   5.26172217049825     -1.27567587495165     -0.12920589804001
  C   5.87954444801200     -0.10123867471470      0.28622721546054
  N   5.25755207161454      0.95124940994480      0.81112411819983
  C   3.94975802567404      0.88132298683593      0.97540489238151
  C   4.87290610438321     -3.32147296966860      1.46355348722465
  N   5.01367981820330     -3.07204625835250      2.57301628010954
  H   2.36104148816565     -2.30733909181855     -1.14347234941616
  H   1.29935611909112     -3.56435064318365      0.47770695182169
  H   2.50180075769197     -3.16592860063888      1.70669559405619
  H   4.21086412159299     -5.87500984537314     -0.57823127805042
  H   4.56099953272424     -5.79235967948495      1.18486483799259
  H   6.03936643196726     -2.28035203879095     -1.87309808376058
  H   7.22996540693539     -2.00943915377628     -0.58730517172452
  H   6.95551773641080     -0.00404996351714      0.18739993522448
  H   3.44873666424156      1.73781066274986      1.41111359942988
