25
Coordinates from ORCA-job 2962optt
  Br  1.32870742026982     -0.17032893862938     -1.44991168708901
  C   3.11334835381043     -0.01644219185459     -0.85112058310529
  C   3.84843899260179     -1.07027696804165     -0.42438941627748
  C   3.30134145014430     -2.47798348831772     -0.39086500034134
  C   2.60747177074595     -2.74422128228019      0.93677718882448
  O   3.54568903349946     -2.67735826878427      1.99432865096530
  C   4.73886910717849     -3.37041422041613      1.76076116657670
  C   4.65398362303865     -4.22790906094012      0.51315324807888
  O   4.37007139652061     -3.39824458346562     -0.59433907043151
  O   5.84365435237455     -2.49306130573819      1.64590254624645
  C   6.15972002997871     -1.80411069246625      0.51296419715329
  O   7.25892757650988     -1.88664804257840      0.06359014793414
  C   5.18317628101690     -0.76529055695916      0.00773443304361
  C   5.68216565607686      0.49337477817876     -0.03219607596739
  C   4.88965730475048      1.61761632237930     -0.48471386123605
  O   5.23783109605296      2.77564236605470     -0.55255755453493
  N   3.59666745367779      1.24887674950588     -0.87479192449175
  H   2.58740895327177     -2.61466533014767     -1.20477367024967
  H   2.10953902371213     -3.71887606759395      0.92146920637712
  H   1.85621710591088     -1.97928145586569      1.12459597958734
  H   4.96959797592900     -3.95831287176625      2.64811280968192
  H   3.90289908404625     -5.01302017126804      0.63902328269356
  H   5.62096343391552     -4.68970305787257      0.32214196074051
  H   6.69890819652071      0.70324196034897      0.26654510333387
  H   3.01274532844604      2.00539637851823     -1.20544107751275
