25
Coordinates from ORCA-job 2966optt
  Br  0.92867810118812      0.26865347448379     -0.41384685806878
  C   2.81845074037233      0.23457479804851     -0.24999375986889
  C   3.54513317375031     -0.91741015595000     -0.32870315609104
  C   2.77679617378431     -2.22626955874122     -0.51157950022652
  C   3.42671973518589     -3.40664961285135     -1.26989819634684
  O   3.57780483253512     -4.42294265467406     -0.28422037584201
  C   3.42642100736292     -3.81029531111860      0.95998810520840
  C   4.77434038742086     -3.28243803660792      1.49376517413500
  O   5.75031128526416     -3.17797374461900      0.47263440094118
  C   5.88384848158970     -2.10098230139885     -0.33046869292125
  N   6.81080127976122     -2.05183440874890     -1.18469214441965
  C   4.98838340833238     -0.90506298385010     -0.17204483690484
  C   5.68957866148405      0.22732034231773      0.05230255612122
  S   5.06841171463193      1.79959891793568      0.21269374379498
  C   3.32242321943626      1.59839057915946     -0.01828496823492
  O   2.64446717605772      2.58969432189707      0.03299320203014
  O   2.49931284153405     -2.77302737852618      0.77082261152345
  H   1.82411841954672     -1.99245191358757     -0.96990346722542
  H   4.37752032991890     -3.16468181779771     -1.74252231694283
  H   2.74691689549669     -3.78389612802563     -2.03172289979486
  H   2.99049201417043     -4.52029491824311      1.66232300041402
  H   5.19212097613119     -3.99607852250956      2.20115413907456
  H   4.61996355960163     -2.32757375194164      2.00099085748331
  H   7.37944141453629     -2.89761732738423     -1.13411216428859
  H   6.76854417090677      0.17824809273342      0.12132554645017
