22
Coordinates from ORCA-job 2969optt
  Br  0.95402048828150     -0.20408119982632      0.27989186409887
  C   2.81868038564870     -0.06587274853078      0.15744473936875
  C   3.49414498024760      1.10897896782144      0.16119987323766
  C   2.96519492612508      2.46071506410499      0.16619141194236
  C   3.78749135642401      3.48185583050744     -0.15461228169200
  O   3.10515479204683      4.63368303297632     -0.17165672068497
  C   1.83626189519372      4.24569072058286      0.14900072507071
  N   1.69448774753022      2.98990843345485      0.36077936152727
  O   5.08580879572806      3.46197743377597     -0.44121028069209
  C   5.71255150624280      2.33612414829323      0.21177200417662
  C   7.09233471058735      2.27101228649086     -0.24826152236694
  C   8.23212830400306      2.20331575262281     -0.60010206047176
  C   4.93529852413416      1.02857482931355      0.03947974323971
  C   5.57676087688245     -0.14899276878834     -0.10008264874960
  C   4.85158140387107     -1.40766623777713     -0.10528429728984
  O   5.33667194098922     -2.51426619709156     -0.21329530290284
  N   3.47328334378830     -1.25403170592113      0.04872503832314
  H   1.09549767103298      5.02501250609137      0.19418694337547
  H   5.70588197117659      2.55909309336272      1.28717226802119
  H   9.24812656225029      2.15170625141916     -0.91356258197799
  H   6.65136277506962     -0.21172167889456     -0.19188241077415
  H   2.94127504274632     -2.11401581398775      0.05610613522040
