25
Coordinates from ORCA-job 2972optt
  Br  1.31679473482457     -0.72493199510252      0.66844111970495
  C   3.07555493551081     -0.29961204788063      0.16423346604401
  C   3.56065744431113      0.96553858827662      0.12124975253353
  C   2.73224509642900      2.17737179502219      0.37579488106889
  C   1.53368196628714      2.50758156567361     -0.52208266765953
  O   0.93539954762877      1.77885714927253     -1.25064024118439
  C   1.30318111035173      4.01264286355802     -0.37990493082825
  N   2.56355485079655      4.49320524630773      0.17897234442672
  C   3.49791467301216      3.47061173223133      0.22450140002119
  N   4.73523376606426      3.63724285116979      0.07688769790017
  C   5.61184441963995      2.48975140784609      0.06359787498189
  C   4.98336774500017      1.11698241040537     -0.06715355630465
  C   5.75536468975219      0.02684819504037     -0.29387610206186
  Br  7.62485220052388      0.17756202296870     -0.49561882149633
  C   5.22484100763629     -1.33169413561877     -0.36206879269759
  N   5.79965629544755     -2.43812654527764     -0.60706728233860
  N   3.85932186141182     -1.37468129563995     -0.06793924186771
  H   2.31655269697175      2.17278399140775      1.39436941784696
  H   0.45137863569847      4.20477627158366      0.27668070077898
  H   1.08524010568153      4.42819507015919     -1.36484880919633
  H   2.92342436822882      5.37959818360156     -0.14266055507737
  H   6.22785276753320      2.49226407462564      0.97015073429331
  H   6.31575577195852      2.62874347303388     -0.75875833753580
  H   6.78974989865772     -2.31102932473218     -0.78566931428537
  H   3.46457941064197     -2.30448154793237     -0.03759073706683
