23
Coordinates from ORCA-job 2977optt
  Br  1.23089855751006     -1.28731533842075      0.87794463984674
  C   3.04836296571518     -0.95456106871172      0.53896200240393
  C   3.94558159466290     -1.89423091294260      0.11358272434884
  C   5.25786308096254     -1.41868440542196     -0.04105106234276
  C   6.44837913678566     -1.93980089479117     -0.44889653174108
  O   6.69467102222422     -3.18211817986710     -0.97386816085583
  C   6.82605900399287     -4.24617137681139     -0.10698714152579
  N   7.84440182116545     -4.98379042857839     -0.13320284445673
  C   5.71306432334492     -4.60858492968928      0.79373821445687
  C   4.42236497640454     -4.28453629310020      0.77072921280923
  C   3.64447041307119     -3.33966095369736     -0.08562784810227
  N   2.72718259916225     -3.80506421504935     -0.81953372901372
  C   7.39411966963130     -0.87012221341344     -0.34665558363039
  N   6.87903388384606      0.26435064387153      0.08576091284870
  C   5.56059960305943     -0.02481916717745      0.28369573982172
  N   4.66065659295222      0.81871159248640      0.69434620238614
  N   3.43519208007456      0.32472163765290      0.79452870974920
  H   8.51270076143668     -4.64540248081417     -0.82514708728332
  H   6.02636290845810     -5.35974382906203      1.50717320960467
  H   3.78186677572798     -4.80586954005319      1.47554098089325
  H   2.23274123829961     -3.06368660893573     -1.31733309371513
  H   8.44214940667632     -0.94366382220648     -0.60907413125707
  H   2.74227758483589      0.98804278473296      1.10937466475480
