24
Coordinates from ORCA-job 2978optt
  Br  1.12368973130052      0.36084238100051     -1.05388512529720
  C   2.93994397726281      0.21571230617323     -0.60842331391588
  C   3.59505878434448     -0.95026522624004     -0.51638951883375
  C   2.99273954043122     -2.30878164458688     -0.75452479608620
  C   2.30227182273724     -2.84079861488504      0.49658338253335
  O   3.23440962657374     -3.05545898782398      1.55746107782895
  C   4.38931514479494     -3.72041060316589      1.25904525402027
  N   4.96156114179722     -4.48693550628379      2.06891194926646
  C   5.02236862343371     -3.38999918390006     -0.08151938131924
  N   4.06953147621118     -3.20322305558768     -1.17383669029770
  C   5.81328037911501     -2.08345412299782      0.04069384916260
  O   6.98308228425615     -2.04911934111464      0.26169926840829
  C   4.98868507955978     -0.80986551647245     -0.14950473508878
  N   5.57818844889002      0.30646531267734      0.05875716187563
  C   4.86469306691485      1.48757263887897     -0.07386525430250
  N   5.29741529933656      2.65342263554789      0.06710232303840
  O   3.49909165588958      1.39410394514792     -0.39592189347121
  H   2.25760052919363     -2.24276082641320     -1.55728828759592
  H   1.80076972516773     -3.78693478514455      0.26774667941531
  H   1.56809743763583     -2.13550490981663      0.88279311732760
  H   4.42613320767740     -4.56959333822635      2.93372729027656
  H   5.73610660581618     -4.17401677041875     -0.31845357300851
  H   3.69784160980696     -4.09448850814813     -1.48089906263666
  H   6.28512480185322      2.61049172180002      0.30399027870016
