23
Coordinates from ORCA-job 2979optt
  Br  1.18038568554077      0.24522599819974     -0.90278038495804
  C   2.99677126280669      0.23751691104976     -0.39994024805822
  C   3.70101851785151     -0.95764056113273     -0.35417635060931
  C   3.12557571583187     -2.30878768256762     -0.68153595618530
  C   2.40203626132890     -2.93638344622978      0.49585221103383
  O   3.30232962200352     -3.17241806467694      1.57928233273859
  C   4.54348032953977     -3.64160306195426      1.28935511093208
  N   5.23804476040186     -4.31571059039537      2.08399415290900
  C   5.14209853069474     -3.24061001123917     -0.05369946463411
  O   4.18581226996020     -3.17876378172430     -1.06072772539440
  O   5.81626633245186     -1.99430688447453      0.08169581108429
  C   5.03886151514323     -0.89510615978767      0.01530502631709
  C   5.61686001401109      0.34128391765448      0.31168981501155
  N   4.93432942602128      1.46538405721596      0.26469299936423
  C   3.64755911879951      1.42844152408607     -0.08271212492908
  C   2.95137120516244      2.69015297390018     -0.12005652325625
  N   2.39221371955853      3.69021166965957     -0.15191490294915
  H   2.45468002233755     -2.24426388815629     -1.53639505095094
  H   1.96505394150399     -3.88658600128316      0.18028770005395
  H   1.62321484378708     -2.28151642190233      0.88070204663431
  H   4.73850674152894     -4.49052250901173      2.95620487052879
  H   5.90100325351041     -3.96272555278960     -0.33343836588992
  H   6.66152691022420      0.38872756555973      0.59531502120700
