25
Coordinates from ORCA-job 2980optt
  Br  1.94277232343055     -0.54838331879775      3.29050627081171
  C   2.78884033164679     -0.25286531482365      1.65424411643431
  C   2.99288072256812     -1.21019670029571      0.75499569922149
  C   2.64514660955644     -2.66790757831233      0.68538251135359
  C   1.15006884966157     -2.87335097543477      0.47463258666953
  O   0.75315671989698     -2.06196127766691     -0.61569207798099
  C   0.93353536894354     -2.56198753192134     -1.88714841835797
  N   0.36218973867122     -3.56855166788273     -2.36574433077182
  C   1.88231042239557     -1.71367537366508     -2.70085269921141
  O   3.23890880813264     -2.11684320392977     -2.56358295418719
  C   3.83156831188263     -2.11712217500980     -1.31474794442629
  O   3.34332842286977     -3.14308956010862     -0.46246915650104
  C   3.65135800594574     -0.86339174885131     -0.47687396400632
  N   4.05973774483248      0.28831059377022     -0.81593418819904
  O   3.83461322968550      1.29228386025952      0.10243179409198
  C   3.23519605007892      1.11143786118435      1.33636346898918
  N   3.08685928959545      2.08318995561321      2.11734468688654
  H   2.98848968306123     -3.21954001025242      1.56378017880599
  H   0.58539569418376     -2.55163838022295      1.34857757001707
  H   0.95178231224258     -3.92916426267264      0.27529023765215
  H   -0.25090925614889     -4.02168481175099     -1.68729141839257
  H   1.76555107187234     -0.66376583544461     -2.41855566977150
  H   1.65641012627911     -1.84486210332595     -3.75446526686525
  H   4.88344316248403     -2.31889226821821     -1.51406967858599
  H   3.45636625623188      2.94265182776026      1.71487864632385
