26
Coordinates from ORCA-job 2981optt
  Br  1.18973807878885      0.15648918590158      0.02022332709661
  C   3.06598361697413      0.03732906922018      0.13266091987977
  C   3.73392505956086     -1.17376873052251     -0.01949500175588
  C   2.99607553419463     -2.46890739584832     -0.25148062904857
  C   2.04735551566346     -2.95973191635217      0.85163147633548
  O   1.95939130055165     -4.35195722447882      0.57612461092411
  C   3.10845419070444     -4.76493482141317     -0.01258380896565
  N   3.37426363281763     -5.98687266934180     -0.11289229618813
  N   3.86326272819150     -3.64341584309086     -0.42750066605774
  C   5.19924432351234     -3.58950815029898      0.17146323117700
  C   5.92619689819099     -2.36221734888086     -0.32604680705926
  C   5.13577495168254     -1.11850781656635     -0.04998695086275
  N   5.83519952281046      0.00279025014882      0.12115866891502
  C   5.18312938812015      1.13200367173703      0.31788340604937
  C   3.79202531653731      1.21251010331429      0.32305897007913
  C   3.16212714887113      2.48305795388307      0.51172641962293
  N   2.68446987265488      3.51418534158282      0.66806856096646
  H   2.40683749719459     -2.35315236766109     -1.16775267627608
  H   1.04749273253733     -2.54555327853848      0.80207424017331
  H   2.46995782384869     -2.79995080037459      1.84892053007819
  H   4.22248941350008     -6.13019204273255     -0.65198004916442
  H   5.73303522731883     -4.49396883007973     -0.11377226981838
  H   5.14541277959631     -3.56971580083770      1.26846562852200
  H   6.08358895996287     -2.43962389063360     -1.40582762469195
  H   6.90316289672577     -2.26279947633300      0.14424641820224
  H   5.77040558948848      2.03041282819684      0.46861237186716
