22
Coordinates from ORCA-job 2984optt
  Br  1.07179295131358     -0.03407611622493     -0.21343017582950
  C   2.92288004179674      0.14298588904641      0.01427820052745
  C   3.55906422325378      1.31234776882731      0.24372149732185
  C   2.99979132657383      2.63186045978567      0.43799084175254
  C   3.57890363703007      3.88856299046213      0.28415313280086
  O   4.79929609949175      4.22558305700216     -0.22929009510725
  C   5.75787237326523      3.27905820032470     -0.35750174596981
  N   6.65066492516950      3.27675617518755     -1.22337606324018
  O   5.71574758599805      2.33617873830214      0.63328629278217
  C   5.01707390446645      1.19846691110150      0.35088312930119
  N   5.70631665085376      0.13765843150162      0.29318891691814
  O   5.03034358392049     -1.03484579740884      0.10264331353472
  C   3.67135144012503     -1.10963961717831     -0.09798521887866
  N   3.13226129696839     -2.21749282558600     -0.35099109744957
  C   2.64804828671168      4.87278060462194      0.64530009877496
  C   1.50993727313843      4.20248306491586      1.02723441774877
  N   1.72398131656465      2.87619831414590      0.89826299376200
  H   6.53631077588293      4.05849650244957     -1.86415261715296
  H   3.82684804568118     -2.96101987928257     -0.39037470361959
  H   2.80218644929140      5.93694917276322      0.61157522944888
  H   0.56682877852184      4.58065823587783      1.38232904852745
  H   1.05749903398116      2.15304971936511      1.10925460404653
