24
Coordinates from ORCA-job 2991optt
  Br  1.29436712461138     -0.20586348520762      0.88287348872617
  C   3.08770497734584     -0.09250630552783      0.31713213764838
  C   3.62815867654009      1.11299572373617     -0.08798183585747
  C   2.98933534289994      2.45393738209384     -0.24018723354949
  C   2.06430478987430      2.63647973714963     -1.44431794322113
  O   1.22219855004266      1.88852166764676     -1.83424860160667
  C   2.47324934514359      3.95915245404008     -2.07225711641889
  O   3.83440080565971      4.12373899286014     -1.71663048236304
  C   4.15671931204429      3.39768243010118     -0.56666508126251
  O   4.45252239675736      4.28285243621226      0.50866898595437
  C   5.73195048635276      4.01289518609497      0.88079207261376
  N   6.36656264131620      3.09641602059214      0.29660994525691
  C   5.44766855568288      2.55471958980104     -0.70452061810786
  C   4.98975571451013      1.14843499892814     -0.39350985744732
  N   5.79253404271658      0.10085807801930     -0.38579032581354
  C   5.24193624006893     -1.05865131363530     -0.03095235440383
  C   3.91108291348534     -1.20795294077274      0.34311897217495
  H   2.43939168741463      2.77418993687389      0.64965287575869
  H   1.85361487473333      4.76812630686637     -1.66932258167187
  H   2.37927962550493      3.93282532033881     -3.15551676187743
  H   6.10939282338215      4.63436655227820      1.68210451075002
  H   5.88822778288862      2.62882137996408     -1.69933446073118
  H   5.89615786291109     -1.92302257217362     -0.03028746032604
  H   3.53048342811306     -2.17101757627999      0.65156972577502
