24
Coordinates from ORCA-job 2992optt
  Br  1.05832289116148      0.01030417898409     -0.08243939979339
  C   2.95454827177065     -0.04795150192105     -0.07804262251454
  C   3.63037796161761     -1.21779432389084     -0.04406715448817
  C   2.89807806945931     -2.53091631627542     -0.02802397334786
  C   2.45114361551585     -3.00715542736421      1.36308727358357
  O   2.29803178792347     -4.42359097390237      1.23341005268933
  C   3.02461937708412     -4.89020855774007      0.20264370435211
  O   3.13549507830271     -6.04446827485305     -0.06400121019458
  C   3.71550944256685     -3.71818866592996     -0.49993380062286
  N   5.05457500049890     -3.66755309880550      0.04938710269044
  C   5.82386714209149     -2.52703785195644      0.09195524880376
  N   7.08102475086703     -2.50258549784016      0.26624740230046
  C   5.08151662222626     -1.21601697238803     -0.01453938724724
  C   5.85399521434880     -0.10896305450323     -0.06797903985951
  C   5.39520620553195      1.26229944969944     -0.14077165317983
  O   6.09793476228590      2.23579676931616     -0.19705845668432
  S   3.62032698462514      1.53489248028119     -0.12592645782043
  H   2.01496988047006     -2.46411283834371     -0.66404685328314
  H   1.49729867105984     -2.58751690694808      1.67083634656722
  H   3.20984045336186     -2.80183455872136      2.12026099738990
  H   3.70432147949295     -3.85993566155576     -1.58253586650432
  H   5.56789041516648     -4.53713110320576      0.00857021840278
  H   7.48444560691048     -3.43523328606987      0.32083760896067
  H   6.92966031566073     -0.22809800606599     -0.04487008020003
