23
Coordinates from ORCA-job 2993optt
  Br  1.58090554163062     -0.52193705723249      0.61028970506713
  C   3.36243482500859     -0.23567911671432      0.00262778452086
  C   3.98204568627632      1.01135271024720      0.14839212608338
  C   3.29495098428665      2.18810433144186      0.80928466665840
  C   4.10865994381995      2.66837159598633      2.01417689771564
  O   3.97073948414509      2.31101062776508      3.14360261578958
  C   5.11117888664703      3.71209936626168      1.51167089440779
  O   6.22522491187969      3.03209056474256      0.95602138461105
  C   6.08329032792139      2.41203242753793     -0.30957006319224
  C   5.29094799768601      1.11618645050103     -0.33505254423985
  C   5.88245360194539      0.00443147062854     -0.91677946926027
  C   5.16293077991836     -1.17359212558512     -1.00543670367706
  N   3.92107873624049     -1.28603686383916     -0.55165722788015
  C   4.30364659132792      4.44336216424721      0.43270701169289
  O   4.41633536274461      5.56870645567126      0.06427801493310
  C   3.26127794171091      3.41603059535236     -0.10945651972681
  O   2.59526672773906      3.57636967369037     -1.08120033058710
  H   2.28524331730477      1.91737974805236      1.11014535853769
  H   5.48125216468264      4.36937904351285      2.29366963284376
  H   7.10261513784529      2.19507218842406     -0.62138624065914
  H   5.67003194571070      3.11218237141090     -1.04685504627697
  H   6.89497934671685      0.05585978956015     -1.29453413274292
  H   5.59250975681164     -2.06277641166264     -1.45093781461876
