23
Coordinates from ORCA-job 2996optt
  Br  1.34478093197826     -0.46629470179845      0.38996676888814
  C   3.14316101601723     -0.36674035400761     -0.11075866241233
  C   3.78066551114987      0.77923503250490     -0.41563246031287
  C   3.18643339986651      2.15110619752410     -0.49840451799667
  C   3.85831812490017      2.93021723028721     -1.62575272217827
  O   5.27466239790663      2.78648300168824     -1.73153703076979
  C   5.90953748884630      1.93492398365567     -0.84239841193714
  O   5.95985415671710      2.44017190113249      0.48129541487834
  C   5.45216469557761      3.72089140901183      0.74839763607529
  C   4.00430350193337      3.73617491137944      1.22883884495678
  O   3.63886671865827      4.52879942872378      2.04079411400693
  O   3.12057529972203      2.82310826026376      0.76301606428603
  C   5.17345909365170      0.62045598728568     -0.69130166859728
  N   5.81722832368055     -0.49151829803964     -0.74797351247137
  C   5.12573088534876     -1.66201040396106     -0.52285673456329
  O   5.53772621634691     -2.76526584777731     -0.60414107542609
  O   3.75159569937806     -1.53237463167608     -0.12618349694358
  H   2.13535102953921      2.06034555030269     -0.77406525154172
  H   3.63332536262465      3.99426585827101     -1.52427693042609
  H   3.43062398108414      2.57586678262249     -2.56484273074372
  H   6.92127296271787      1.78161646054083     -1.21338293165381
  H   5.55261287697942      4.39349136146433     -0.10616487152662
  H   6.03075032537531      4.13405088060166      1.57136416640914
