24
Coordinates from ORCA-job 2999optt
  Br  1.39427471385467      0.45351973276789     -0.59058733695585
  C   3.04891875616165      0.37221087741984      0.31282777739792
  C   3.18342589985826      0.82271197568222      1.59398201369193
  C   2.66103193345424      2.21288846622418      1.75547173612266
  C   1.45461542937434      2.74183397824494      1.43857947131273
  O   1.59177484231614      3.73455191224989      0.51078109518861
  C   2.92338473852922      3.78595905721806      0.20617722849470
  O   3.28967861706211      4.26961413386439     -0.99103102964055
  C   3.43792547676959      3.22718449225204     -1.97490237999434
  O   4.44596068731405      2.31683486991282     -1.62270134631339
  C   4.28866680684580      0.90375020156702     -1.83813099611914
  C   4.23201472369193      0.19221565207162     -0.49829982841003
  C   5.35681971033114     -0.08572060670594      0.17548464028777
  O   5.36732635893930     -0.23535949684061      1.51232077599740
  C   4.41233280114090      0.41497258782953      2.29529669470768
  O   4.63756120487413      0.55895301677121      3.45495638401609
  C   3.63523748292204      3.03066699493631      1.04548103660815
  H   0.44497492559528      2.46570944096280      1.68536734287866
  H   2.47984846954434      2.71660938937804     -2.10250548073687
  H   3.72005089637240      3.77437565490422     -2.87275073154873
  H   5.17316973553331      0.57460479018418     -2.38330780420830
  H   3.40860996763204      0.70274619292840     -2.44808587875052
  H   6.33989546946045     -0.15490451377620     -0.27120544232151
  H   4.69150035242266      2.84107119995312      0.96278205829493
