21
Coordinates from ORCA-job 3009optt
  Br  0.98809392899239      0.55393346019236     -0.75562341353980
  C   2.79468730102841      0.23262578349012     -0.30478446503834
  C   3.35957204761818     -1.00725783235988     -0.16057933357126
  C   4.78009843250000     -0.99581795677483      0.02337408847163
  C   5.74935863719826     -1.95535214627928      0.10060308380519
  O   6.93413771751779     -1.40864675914571      0.27323115674112
  N   6.82709297549391     -0.03094187489204      0.31061077786111
  C   5.54610231294929      0.19905428038271      0.15010239869751
  C   4.89040698055734      1.46242756804342      0.06520260029973
  C   3.56241647258602      1.44825221006373     -0.17950589856008
  O   5.78838726294524     -3.27610579821362     -0.01583824703863
  C   4.67384485578465     -4.03561510411212     -0.30829493669494
  O   4.87512460886649     -5.17127096229671     -0.59808857150710
  C   3.29106786829963     -3.52620720986748     -0.17609287781051
  C   2.68823775004577     -2.31581814477465     -0.11815409457181
  C   1.27241645788664     -2.40521609788981      0.10114836900963
  C   0.11681898113945     -2.60912264559799      0.34194021973455
  H   5.44597907453681      2.38340990288466      0.17020160274896
  H   3.02291580797740      2.37923456631851     -0.28217958711667
  H   2.63145070105902     -4.38261072023933     -0.14155105314669
  H   -0.91821017498280     -2.75295451893206      0.54427818122641
