23
Coordinates from ORCA-job 3016optt
  Br  1.34778686845037      0.67148498010622      0.15681974980268
  C   3.15309140566503      0.17931572707788      0.07020814878477
  C   3.57533861903414     -1.10506729348818      0.08810911451524
  C   3.04860017930512     -2.45440519359343      0.13146053294947
  C   4.13547604692830     -3.28453960452563      0.05756118839647
  O   3.82751736590420     -4.55878653098287      0.09559903872932
  N   2.41796979711395     -4.62353403968954      0.20672162574109
  C   1.98950629006057     -3.38977285248756      0.22962289052407
  N   5.32836669352502     -2.62666325515712     -0.00411908702634
  C   6.70547688681127     -2.99548179598240     -0.26301004386085
  C   7.57750568697717     -1.87255229274937      0.30955402904447
  O   7.24793926123756     -0.58938610640070     -0.20797254632143
  C   5.92436654563964     -0.29445433794014     -0.10418910316303
  C   5.00143041526720     -1.27947336737769     -0.00144215346233
  C   5.47412985974906      1.07716190329766     -0.10989317621704
  O   6.15711467388061      2.07828057366062     -0.18006099741101
  N   4.06784860454455      1.18522469628452     -0.02394615045631
  H   0.92588087892572     -3.23021462143695      0.31426739122900
  H   6.87644337397104     -3.10302488526617     -1.33647597368926
  H   6.94140580981394     -3.93717544574484      0.23162451979442
  H   8.62011783840936     -2.04311822555801      0.05440565906607
  H   7.46752336630645     -1.85464259408688      1.39776487350977
  H   3.74316353247970      2.14282456204060     -0.02260953047922
