23
Coordinates from ORCA-job 3040optt
  Br  2.41453986829310      0.67440097469569     -2.99872700896891
  C   3.17865202670928      0.35817884363050     -1.30362813537384
  C   3.03433158597649      1.18189924189644     -0.23461921046442
  C   2.53721458257366      2.55950079966741     -0.26609073504503
  C   1.93633546243985      3.25189777559645      0.76332375049665
  S   1.47765613977899      4.87182791592763      0.24530706492306
  C   2.16443358568888      4.61349943228580     -1.36204307229870
  N   2.23877473706763      5.37835691915740     -2.36402676884130
  N   2.66446732777551      3.32276697300479     -1.38959067827303
  N   1.61609943642930      2.94091891993746      2.03596173144746
  C   2.14321160500853      1.97839664950549      2.71017659984604
  C   3.15156699443990      1.05020949763525      2.29660861507290
  C   3.54664359497119      0.69938250261583      1.04698254268106
  C   4.50968976303082     -0.40180597368576      0.96887025467381
  N   4.70783372919565     -1.13187303450149     -0.04976431061085
  C   3.92353042522976     -0.91214195500061     -1.20676442641989
  N   3.88575330161937     -1.77482913266436     -2.13427672164208
  H   1.82530984627981      6.28900272726297     -2.19805418146395
  H   3.01733513321360      2.96625992166891     -2.26611857368596
  H   1.81055224578895      1.89434891582604      3.74074265924166
  H   3.62411806103700      0.50707523441933      3.10932141265817
  H   5.07355052233081     -0.62741180997239      1.87275646109567
  H   4.49240002512189     -2.55486133890878     -1.88134726904848
