17
Coordinates from ORCA-job 3042optt
  Br  1.01902425355679     -0.16938890019982     -0.02878869873325
  C   2.89105577208883     -0.01997989100780     -0.03604709216741
  C   3.53959713277026      1.17083555330054     -0.03779395964150
  C   2.98185884935106      2.50710998178958     -0.03672097309950
  C   3.74893530996851      3.65322233096450     -0.03756215988600
  S   5.47960599992075      3.66011637424770     -0.03937935011660
  N   5.84959643447970      2.07900450921633     -0.04200838291484
  C   5.00933783061417      1.10273438558523     -0.04141853153339
  C   5.63111330566484     -0.22529520899740     -0.04400640289550
  N   5.01359099174000     -1.33365311494158     -0.04358256015926
  C   3.59394494466349     -1.32922680165306     -0.04016668574399
  O   2.99954554287633     -2.37267095748910     -0.04069760153105
  N   3.10126859635595      4.84698032893930     -0.03716200454650
  C   1.82130904006906      4.63333914235924     -0.03654643381979
  S   1.32356892912746      2.99821891540068     -0.03575668713580
  H   6.71918131534606     -0.22233297587560     -0.04633935733391
  H   1.09246575140672      5.43198632836125     -0.03602311874170
