20
Coordinates from ORCA-job 3049optt
  Br  0.70784479946497      0.59156693052883     -0.26875554554159
  C   2.56014904608160      0.42306758540874     -0.47952040750972
  C   3.21363332798450      1.03933564831484     -1.47416023144338
  C   3.01318465443123      1.91294778982910     -2.63021795322244
  C   4.25191992409303      2.14208197884412     -3.22774643831100
  S   4.02556663539222      3.13506379717106     -4.55493523099725
  N   2.33151398322479      3.20237517939332     -4.26613749254881
  N   1.98778780028615      2.52793648091987     -3.25219251986674
  N   5.24964118234858      1.46686749418846     -2.53112433350559
  C   6.60753738083895      1.17076142657039     -2.45722069831463
  C   6.79461785612953      0.34491780062334     -1.37713098450489
  C   5.51397238878068      0.11744735514734     -0.75948156379714
  C   4.63343617614209      0.82265252034542     -1.50518392626205
  C   4.90776264508830     -0.61505053080667      0.35366435692450
  O   5.48230802449021     -1.32230381291683      1.12931551614702
  C   3.33963570899819     -0.42190076096213      0.49415682756730
  N   2.82541880559713     -1.02501841232265      1.47461646731383
  H   7.31202316080741      1.56846219257619     -3.16625938386155
  H   7.74308791703887     -0.05394311116293     -1.05902568533965
  H   1.81595858278151     -0.87326755168980      1.52633922707379
