23
Coordinates from ORCA-job 3056optt
  Br  2.17987618595971      0.33442334315412      2.65589226819162
  C   3.29237616315692      0.42119562056001      1.13468596054006
  C   3.26220026606799      1.46672512552210      0.29097607951617
  C   2.13679723365617      2.43798560971204      0.16193356571783
  N   1.90683797344585      3.78222502257791      0.70601353438136
  C   2.30392481090764      3.62969792019901     -0.68490073510386
  C   1.38939615017718      3.74770213473947     -1.89021869134633
  C   1.94382386737311      2.72151287943001     -2.78900211267411
  C   2.60614564556416      1.83195043791655     -3.26128937971492
  C   3.42454882725082      0.77262632308088     -3.75284712166132
  C   4.19094075195639     -0.01870387882829     -2.98620815657085
  C   4.26436723310071      0.07357953649082     -1.52383661224661
  N   4.40593854138467     -0.99391668779148     -0.82521032607571
  S   4.19642681353138     -1.02308231653438      0.81973734536940
  C   4.21166684088257      1.41102912342189     -0.84758605437155
  O   4.90926823974010      2.31950944644107     -1.21886847816265
  H   1.19199854253872      1.90907658461283      0.06564717426300
  H   2.69627632166439      4.11791609971936      1.24923828283440
  H   3.32887577951648      3.88841565460328     -0.91404047147486
  H   1.41842914051664      4.73600462714207     -2.35079062090759
  H   0.35411208597470      3.52506059799886     -1.62411900882800
  H   3.39605779032154      0.58228988473725     -4.81942124607940
  H   4.72271479531209     -0.84722308890542     -3.43678519559605
