25
Coordinates from ORCA-job 3057optt
  Br  0.94870247479731      0.13396326549352     -0.27970834312832
  C   2.82882893542918      0.11020074669739     -0.13522253309203
  C   3.52172951205515     -1.03545921148466     -0.25695154952650
  C   2.84587401078117     -2.35353848751369     -0.45210465307046
  N   2.05237228598516     -2.85606240651102      0.66731024362470
  C   3.29595140452391     -3.53104695816655      0.32471299085988
  C   4.43692776995615     -3.35148982467186      1.29292135158047
  C   5.74423440709007     -3.12210022889853      0.55005857175790
  O   5.59436995392424     -2.18098945179997     -0.52091303385319
  C   4.97345882514297     -1.01289421669676     -0.21623890501387
  C   5.74367959241117      0.07706271021410      0.04354408791531
  C   7.16215978975679     -0.05117336669829      0.08747648115737
  C   8.36001774115972     -0.08793047021604      0.15215778333823
  C   5.21264062507302      1.42545232180642      0.29251261507261
  N   5.86221330826833      2.47059988484242      0.58661916249663
  S   3.46416064239733      1.68815345389352      0.14066419657759
  H   2.46714717164008     -2.53530129379206     -1.45228314410747
  H   1.23870551740881     -3.35971344489988      0.33265252488588
  H   3.23439158808947     -4.48938858479316     -0.17962793099503
  H   4.54357059561984     -4.21803381224151      1.94801526769961
  H   4.20591481015381     -2.49547632753615      1.93008952235358
  H   6.09233369590613     -4.03080151102110      0.06103475131913
  H   6.52467149422759     -2.76672683567591      1.22831038998382
  H   9.42181232243298     -0.13767632710167      0.19897403667100
  H   6.86213152576956      2.27737037677148      0.63799611549317
