22
Coordinates from ORCA-job 3063optt
  Br  1.18361392977343      0.68274986097160      0.47503079295217
  C   2.99985668650503      0.29604231514858      0.25693558346076
  C   3.91099673926927      1.25801679500594     -0.12901730685566
  C   3.75315400246661      2.72251939286722     -0.46602399216454
  N   5.13228640806821      3.14813840935491     -0.71762972342444
  C   6.02204840533869      2.01014318316358     -0.95328964357829
  C   5.21896554822641      0.85850136369367     -0.40323804813477
  N   5.68823189189972     -0.36879450717385     -0.26569801656403
  C   4.82747930025676     -1.27732944068441      0.17394399585353
  C   3.48229802455598     -1.00670164939737      0.43755342624564
  C   2.62840150281722     -2.07097056080763      0.86863570517076
  N   1.96393790664929     -2.93947904340997      1.21394453008696
  C   5.51832150283889      4.07477026891905      0.22733486709026
  O   6.60911375419784      4.48707794118850      0.44974945764498
  O   4.40569776213255      4.47621699867686      0.93277044390294
  C   3.32079315269465      3.69835566992300      0.61461058237280
  N   2.18170402848503      3.81749260069743      1.10393063588211
  H   3.10332690308844      2.85100533492508     -1.33595652277105
  H   6.97141843476277      2.16255875381943     -0.44175666389904
  H   6.21881888384248      1.86518860209289     -2.01700391755600
  H   5.19997688821515     -2.28519061060369      0.31497182182517
  H   2.14555834391556      4.56468832162918      1.79620199245973
