25
Coordinates from ORCA-job 3065optt
  Br  1.20787270951123      0.06615090208848      0.23820847545087
  C   3.08010026347385      0.18345578584079      0.47793294032301
  C   3.76031916180825      1.35308844242483      0.45684273687038
  C   3.07394990068632      2.69999155739638      0.43141669853341
  N   1.89879431578797      2.95218964230792      1.31569534484793
  C   2.63296655095136      4.00084605755340      2.07199037924345
  C   3.80829853743451      3.80232773033637      1.15657899285705
  C   5.02268968773573      4.29712123430247      0.98200496120268
  C   5.91630755982689      3.72434112433120     -0.01767998172363
  C   5.95000553149854      2.43683473319794     -0.37739504134520
  C   5.20262736179953      1.29805523215140      0.21134568215619
  C   5.92322694152956      0.17020703725812      0.39702014392611
  S   5.22091104050968     -1.17649061245760      1.20780085658248
  O   5.72793793623157     -2.42317197268675      0.72699474582811
  O   5.15987869190309     -0.92539528299709      2.60929215770585
  N   3.68284103603293     -1.03674716449420      0.58329430565192
  H   2.84320505382829      2.95673551599384     -0.61079476444254
  H   1.63999417556059      2.15863628950439      1.88661922267328
  H   2.84049363848042      3.75472902944009      3.11607218240895
  H   2.14637929831060      4.97653932244389      2.02582503185824
  H   5.37283686187781      5.13613481779144      1.57290582871221
  H   6.64291248632763      4.38756093881203     -0.47435416114393
  H   6.69838454684254      2.13413646270668     -1.10119506167392
  H   6.95796466025513      0.05688755367924      0.10541597232730
  H   3.26110205179589     -1.86816437692531      0.19216235116980
