22
Coordinates from ORCA-job 3078optt
  Br  1.05520815707573      0.04419216222487     -0.05250422925145
  C   2.91174426834184     -0.12049298424588     -0.05309363141607
  C   3.59869637914479     -1.32292720103111     -0.05316428034196
  C   3.00787008567450     -2.62003005228278     -0.05299472189483
  N   1.73402665157359     -2.98004763833561     -0.05286512110545
  C   1.75464183088283     -4.34943253083360     -0.05275880908946
  C   3.02431951111688     -4.88764268801596     -0.05285038111908
  C   3.88432737667253     -3.76754080639021     -0.05301854030458
  C   5.24571660230809     -3.54038138298936     -0.05320267063110
  Br  6.42886637870285     -5.02152734225904     -0.05314152291461
  N   5.82198917395784     -2.35022848100552     -0.05339248898712
  C   5.04742192865747     -1.27077574118966     -0.05340159209555
  C   5.68675754820197      0.01206143389233     -0.05365076197911
  C   4.92451326619288      1.14184625721774     -0.05367394746260
  N   3.57140708497481      1.05022688750437     -0.05338479634816
  C   7.10780126355292      0.12227290058395     -0.05387825508670
  C   8.29954354641318      0.23847767265516     -0.05406322425773
  H   0.82168783147413     -4.89471658905304     -0.05264872293365
  H   3.30660288524157     -5.92707700438565     -0.05281794393244
  H   5.34178243386779      2.13638140362120     -0.05390780330146
  H   3.01853283942672      1.89629707714156     -0.05335617785706
  H   9.36054295654504      0.31906464717624     -0.05423037768985
