30
Coordinates from ORCA-job 3081optt
  Br  1.04313291547083      0.19577915710266     -0.05015896905011
  C   2.93971248817847      0.02043333165253      0.09290137684570
  C   3.54878584733582     -1.24726292765507      0.17317965649132
  C   2.69903393718920     -2.49548270568399      0.12605506586805
  N   2.32590520201093     -2.96694753881189      1.46225629961576
  C   1.74417264424857     -4.30749698377871      1.26710845592101
  C   2.00756208464877     -4.70437856815857     -0.20953762128314
  C   3.12629440345724     -3.75311617627303     -0.65813114248801
  C   4.46721326939211     -4.37810649585405     -0.29010256323269
  N   5.65402560392516     -3.55303463723248     -0.43614250749843
  C   5.81602963922982     -2.46006524804375      0.49756629568466
  C   5.69296588469495     -2.95966231790453      1.88046135313092
  N   5.56903576320063     -3.33015196805586      2.95749008712919
  C   4.93897687356478     -1.21599642433462      0.33374623432632
  C   5.60353596286372      0.00590826228785      0.36547600306900
  C   4.88041656509860      1.17460693240982      0.24720819432128
  N   3.55937925211365      1.17681691202992      0.11813385056679
  H   1.76994808266791     -2.19552027046433     -0.36061284604316
  H   3.13812805785703     -3.01540870942643      2.06548023785628
  H   0.67323219152894     -4.28466503555774      1.47111740576352
  H   2.19576580476018     -5.01339866849785      1.96479333895039
  H   1.11178294234005     -4.54389630547950     -0.80894652258038
  H   2.29117925003317     -5.75241945663194     -0.31234407783593
  H   3.09588751766020     -3.56062169368784     -1.73401671179642
  H   4.61105556683890     -5.26558777058250     -0.90944160306374
  H   4.43978876940153     -4.73527710061539      0.74343915030346
  H   5.75858292234524     -3.20658616408464     -1.38231288106479
  H   6.84971134167826     -2.11592658369984      0.40731652243457
  H   6.67889823849558      0.04271692221697      0.48413579965139
  H   5.36686097776968      2.14274823281488      0.25988211800721
