26
Coordinates from ORCA-job 3089optt
  Br  1.20793272230288      0.15251313756333     -0.84682434625723
  C   3.06337565733128      0.21265786051257     -0.58767468325340
  C   3.79078142402491     -0.90635199036234     -0.39978912460599
  C   3.37476243647556     -2.34747508577038     -0.33231542373471
  N   2.63242254503088     -2.66660027586877      0.88139863178024
  C   3.03310593575616     -4.01814032040928      1.26131108239791
  C   4.54919420355150     -3.95750177758362      1.08806097213587
  C   4.72736294273180     -3.08679178638732     -0.15726733323289
  O   5.75009354740173     -2.08437688508553      0.01950449850082
  C   5.18891128544570     -0.86707297377900     -0.17625142907599
  C   5.81116730993093      0.32586351326377     -0.16820016738101
  N   5.07258589377909      1.45908598801563     -0.36777590537889
  C   3.69629811512938      1.52894122389564     -0.57728576142746
  O   3.14369667773655      2.59747098184626     -0.73009914829278
  O   7.13899637826928      0.53533948840716      0.08113813151733
  C   8.04370967626472     -0.07161208412037     -0.74466791808674
  O   7.77656430010799     -0.68842175652771     -1.71787975154898
  H   2.86166397216831     -2.65381609179657     -1.25085866657312
  H   1.63481615156089     -2.54342251223879      0.76674424407542
  H   2.60459143898436     -4.78918455193611      0.60529035457939
  H   2.73451914918487     -4.23460039111323      2.28582411917390
  H   5.01179775679782     -4.93709287969764      0.98960633100246
  H   4.99749733917156     -3.43619550333362      1.93339905524089
  H   4.99814859197977     -3.66178858926910     -1.04147933032161
  H   5.54917535989410      2.35088661825262     -0.35108805492662
  H   9.04582918898791      0.12068664352241     -0.34982037630685
