22
Coordinates from ORCA-job 3093optt
  Br  1.77425774261120     -0.76900849565013      0.33047935168803
  C   3.20216366988354      0.38424189801221     -0.01483121723424
  C   3.14132322114849      1.72482833622731      0.16059720207181
  C   1.81884739101245      2.45996959090938      0.40768843421088
  N   2.20682925798070      3.80976886657623      0.77551117621677
  C   2.39753187442218      4.43400690589833     -0.30783660506633
  C   1.79461774269520      3.86216097675692     -1.56436044099336
  C   1.14893437909344      2.61391961518040     -0.97451503854016
  O   0.29870844166999      1.92679239077397     -1.44895451743351
  O   3.33465514285132      5.40498500963842     -0.36441733140896
  C   4.62370936270549      4.75356527523633     -0.42050380093592
  O   4.68726797005366      3.62526681020409      0.40672207280687
  C   4.43479897853080      2.37404321873534     -0.06645908520493
  N   5.43581892191468      1.78919759841038     -0.61843214816945
  C   5.35773719021206      0.47504554956631     -0.99628456774721
  O   6.11459450979204     -0.12304020899492     -1.68006700865369
  O   4.27070681137954     -0.25550429570463     -0.44902971565461
  H   1.19222247256901      1.95068577254806      1.13502155886117
  H   2.54410449843946      3.59325978666902     -2.31503469953826
  H   1.07558337499645      4.53225166356335     -2.03472065163152
  H   5.33644233129754      5.47841136954223     -0.04467743051024
  H   4.83914471474070      4.47015236590136     -1.45389553713314
