27
Coordinates from ORCA-job 3095optt
  Br  0.63815828218788      0.35940761590243      0.24200337135595
  C   2.53261879132925      0.18032418062585      0.40476678536025
  C   3.08298457079874     -1.05566405372120      0.75230002685601
  C   2.26766586804760     -2.30570964595638      1.01715046979812
  N   2.21846249456386     -3.19695478797844     -0.13613235658678
  C   3.52835792274285     -3.85226878939387     -0.25388037922268
  C   4.21133649696755     -3.63085560134316      1.12608423599969
  C   5.17446391887685     -2.43111307711146      1.08682783210262
  C   4.47584850656791     -1.13119379585365      0.76804757100258
  C   5.21527537127060      0.01352162488118      0.49262211423038
  C   4.54694836349766      1.18594993954659      0.19628027893335
  N   3.21810331375119      1.26535943851481      0.14229623338224
  C   4.91987552907211     -4.81158669028898      1.60150657720709
  C   5.51550536169277     -5.77498546826722      1.98828617402406
  C   3.01763684929185     -3.19415243842658      2.02113297214029
  C   2.18936214551936     -4.31354466264436      2.46097819742089
  N   1.54048652688222     -5.18348959137385      2.82676118893461
  H   1.26462875468383     -2.05659689822556      1.35360129616804
  H   1.92038247665544     -2.72778496583380     -0.98141322416209
  H   4.15715571780397     -3.42689277819713     -1.04169019036818
  H   3.39752332310247     -4.91525815313781     -0.45278733592988
  H   5.95430513552299     -2.61820912566818      0.34584735045425
  H   5.67664056815136     -2.34575157013964      2.05479100473533
  H   6.29764227595336     -0.01269873313862      0.50439642095021
  H   5.08760093576526      2.09967892762891     -0.01928977771955
  H   6.03308360183923     -6.63815075534032      2.33390257719139
  H   3.36194689746174     -2.64738014505953      2.89961058574177
