25
Coordinates from ORCA-job 3101optt
  Br  1.14786920549209      0.20176250609032      0.71929926312416
  C   2.95517500058555      0.09105407603788      0.20851201957217
  C   3.81416537285379      1.09855226899458      0.44453374868903
  C   3.58735008569895      2.44190007793686      1.11829115250923
  N   4.88757132804229      2.73005276742116      1.75370903078869
  C   5.72405356702804      2.46456693666704      0.56197146309999
  C   5.16702949928891      3.53676796708302     -0.39472322443317
  C   5.73693251652631      4.93682405993279     -0.13576674026672
  C   7.16261283909379      4.99319012022782     -0.44535368046046
  C   8.33379431046749      4.99677885506070     -0.69759815554676
  C   3.67743172479194      3.47197713073052     -0.02858164009947
  O   2.78394396152345      4.09572644402979     -0.51174470966447
  C   5.21286740342169      1.11276957193325      0.08876694700571
  C   5.83384699677876      0.11036916681489     -0.53990507830056
  S   5.03788425265601     -1.35446016820094     -0.97536063079233
  C   3.33994180140521     -1.17731340808228     -0.42770783748214
  O   2.61061316688736     -2.11256769259945     -0.61150644287545
  H   2.70885599225448      2.53824172916007      1.74550649234654
  H   5.08310658020588      2.06082450142193      2.49265283226423
  H   6.79305517447538      2.53592662235960      0.74465537246385
  H   5.30378853003466      3.27084311322485     -1.44308897784519
  H   5.57930049086295      5.20115107739535      0.91206031543037
  H   5.19082520659959      5.66024334883384     -0.74377136342126
  H   9.37308079981345      5.02001831232600     -0.92434768349040
  H   6.88090419321195      0.14780061520038     -0.81550247261562
