24
Coordinates from ORCA-job 3107optt
  Br  1.33412422829794      0.21302799073991      1.40532785701946
  C   3.01965507287222      0.09820808356180      0.55867439304623
  C   3.55759547324562     -1.09386299373061      0.26749207464641
  C   2.94464271773210     -2.46426588912408      0.48803487575092
  N   1.69385777512703     -2.66571380234861     -0.24630795284775
  C   1.97378201028208     -3.24298594213038     -1.44528644363535
  C   3.23519344930928     -3.71731184397651     -1.51493091358779
  C   3.78492001769274     -4.43975805211182     -2.63227510952163
  O   4.90343833609002     -4.90711322904613     -2.66094644901706
  C   3.94186189103436     -3.44607906576756     -0.20551460709565
  C   5.27277199874698     -2.69832406629874     -0.34711103912183
  C   4.89036867359844     -1.24278389795696     -0.31024825197904
  N   5.65647948491170     -0.30451210970067     -0.70830763141857
  S   5.22369883150528      1.28365900036196     -0.57490804740300
  C   3.67500287909615      1.38463196734053      0.28113150110825
  N   3.15031220404228      2.48859434260651      0.61477463763953
  H   2.79885287533601     -2.65131084502276      1.55222799415814
  H   0.92903871422396     -2.02064714953258     -0.12733420785234
  H   1.20701993558512     -3.31800982839218     -2.20502539778765
  H   3.10832751196515     -4.54550480366524     -3.50227889244673
  H   4.06479135236290     -4.37226766790441      0.35745993862550
  H   5.80875611398794     -2.96487945118954     -1.25528487003434
  H   5.93129453992053     -2.90663738805011      0.50008303885333
  H   3.72421391303412      3.29284664133821      0.36555350290096
