20
Coordinates from ORCA-job 3111optt
  Br  0.99365533739110     -0.27043138245073     -0.04963274637961
  C   2.83640974712559     -0.02287841323878     -0.04600392619999
  C   3.44155810579123      1.17418586611514     -0.04551165456207
  C   3.23329055536174      2.63341864262477     -0.04645446575991
  N   2.26356134579232      3.49461714750848     -0.04825957230678
  C   2.86747334462212      4.72652406618397     -0.04733007676902
  C   4.23668653452535      4.62218222475781     -0.04506839465343
  N   4.48880028455311      3.28159925181746     -0.04445087738201
  C   5.51801023835605      2.33167022516755     -0.04213340357542
  N   6.81029031161163      2.19011549882684     -0.03938417711379
  O   7.00265707096405      0.78167467586109     -0.03827752083773
  C   5.79521691327519      0.16925874121612     -0.04039220763372
  C   4.86385325340122      1.10521463096006     -0.04289225916578
  C   5.30109615360471     -1.20920821669792     -0.04049628346429
  N   5.92070986358936     -2.30417982479267     -0.03871922291109
  C   3.70910200215788     -1.28360269458830     -0.04344429311435
  O   3.20791585107278     -2.36461964381857     -0.04369834057495
  H   2.28340300113492      5.63161117786559     -0.04826269753627
  H   5.01545505403492      5.36319170293794     -0.04370076161902
  H   6.93185503163468     -2.15934367625586     -0.03688711844076
