23
Coordinates from ORCA-job 3113optt
  Br  1.06684720668914      0.00169296978971      0.57072242642571
  C   2.91170314818059      0.12705960423763      0.27327405615791
  C   3.60692778151035      1.27749359535566      0.00683499706851
  C   2.93997454040881      2.56581050712140     -0.18847850979603
  N   1.76776058962634      2.72452103699726     -0.74663678909972
  C   1.46237505539926      4.05321919458681     -0.63845369275082
  C   2.46441654205388      4.71711623314042     -0.00457603817090
  N   3.42420468212736      3.76909876737384      0.28065177719359
  C   4.65813257853962      4.06163525716818      0.86885795673578
  C   5.78445154193474      3.40107198191142      0.62998963423236
  C   5.91748185764461      2.28060356179097     -0.33072001444960
  N   6.75690083881551      2.23474730814311     -1.27164773968977
  C   5.02991790783946      1.08438457700342     -0.10850294931540
  N   5.65850447237587     -0.04132753210146     -0.00221831011560
  C   4.95698791357758     -1.20327250652489      0.23059278387669
  O   5.43136548356487     -2.30371976357727      0.32838556700797
  N   3.56146928445168     -1.04264160429605      0.37462269477125
  H   0.54176403003020      4.45352663863082     -1.02837888204674
  H   2.61233308591573      5.75345486163723      0.24452391952986
  H   4.64012815142630      4.92962228618086      1.51478260451970
  H   6.69039919157214      3.72985023703895      1.12338542675670
  H   7.32385281365445      3.08447055429826     -1.29954326592873
  H   3.04710130266146     -1.88841776590631      0.58053234708728
