23
Coordinates from ORCA-job 3114optt
  Br  1.06355547234640     -0.25153963237560      0.17987888908356
  C   2.90021769623418      0.05408084807742      0.05772470995180
  C   3.49194407858775      1.27682627011407      0.02008045582213
  C   2.79722189619278      2.55569984212927      0.03996087801482
  N   1.55119166883244      2.82204165052988      0.05708934117963
  C   1.41510823196579      4.27963240886716     -0.01812869947875
  C   2.82418189308500      4.88146434002236      0.12235275522549
  N   3.63906904524117      3.67252103664220      0.02784170562239
  C   4.98532081770918      3.58207293131123     -0.03142139315070
  N   5.65623898368972      2.48928960035911     -0.07670451455164
  C   4.94810991872324      1.29618917459208     -0.05466425069137
  C   5.64615927354968      0.13299034744826     -0.10355768868717
  C   4.99823223024919     -1.14264202108410     -0.07972213403509
  O   5.46417984287835     -2.23575931563174     -0.12480214361959
  O   3.57358853267722     -1.07346723887044      0.01845129736855
  C   0.76406680782112      4.60455681110715     -1.35690687588363
  O   1.18329415478566      5.42843162920605     -2.11759477793510
  H   0.73361506820849      4.62500937849677      0.76414653222076
  H   2.97584566609227      5.36801280383539      1.08552075241912
  H   3.04225744606123      5.57714082353140     -0.68742905171297
  H   5.51548824829028      4.53023036250877     -0.04203352088725
  H   6.72326961108613      0.14350346381962     -0.16418562405427
  H   -0.12915658430734      3.99871448536366     -1.58689664222072
