25
Coordinates from ORCA-job 3125optt
  Br  2.34146226960465      0.24545772680272      2.76506264304842
  C   3.48875840672561      0.11754209413575      1.29448677029526
  C   3.56995669138093     -0.97693312383597      0.51867718913301
  C   2.78359452518741     -2.27308941183194      0.60533096957173
  N   1.38753581198048     -2.05454245056440      0.26096596104081
  C   1.15972358794022     -2.10528116829807     -1.17702725122914
  C   1.53924216937710     -3.44459650489678     -1.78500232897303
  N   0.96666268733611     -4.03269144898477     -2.75059134891714
  N   2.59391939663060     -4.04605523751240     -1.12503768595444
  C   3.51639040084938     -3.22345632013097     -0.39057024232179
  C   4.39711547620463     -2.30969698600483     -1.27404740863472
  O   4.88322131321908     -2.62389110250674     -2.32417132071406
  C   4.48047657662755     -1.00839969138108     -0.58291307289303
  C   5.24449016588297      0.06542179260889     -0.84776162333820
  O   5.17358464865520      1.15793865220114     -0.09511511647618
  C   4.31752919657057      1.29226835507843      1.00908076431892
  O   4.34072464385354      2.32486152734135      1.59573591140097
  H   2.82486828856743     -2.65551678421679      1.62479233529868
  H   0.81050272997414     -2.74407749921767      0.72577252169650
  H   1.74825434357595     -1.31275275354814     -1.65276347628578
  H   0.11307055662855     -1.89437360868276     -1.38990058811666
  H   0.17081039123924     -3.49695869178433     -3.08569825140754
  H   2.97402771777778     -4.84770322397471     -1.60852542588823
  H   4.20663298232721     -3.86941433732169      0.15733750921138
  H   5.96044502188358      0.14394019652577     -1.65511743386572
