24
Coordinates from ORCA-job 3127optt
  Br  1.13454463670512      0.20080008226711     -0.09831881789015
  C   2.95946563569642     -0.16183793268104      0.27761937885980
  C   3.55070058592391     -1.35389920408601     -0.16565071683846
  C   2.76459477574358     -2.51266861688551     -0.72842179633031
  N   3.61058078083815     -3.57729671415544     -1.25671129944993
  C   4.88946509931142     -3.22123518996327     -1.82800464114728
  C   5.70969018962595     -2.48192065860519     -0.78744018709713
  O   6.88145046899715     -2.67250173622646     -0.60937489235215
  C   4.93857787625900     -1.42520054839225     -0.05446954759196
  C   5.63868360575729     -0.41437495756032      0.59427314811975
  C   4.92342132528653      0.65870943605088      1.08557780721938
  N   3.61054928822555      0.79396037646856      0.89256498184958
  C   3.48710418112495     -4.74606484110750     -0.50557436329965
  N   4.11546383288744     -5.83907710571549     -0.53193455238022
  N   2.43520369863546     -4.52381941660946      0.37567994644691
  C   1.96781648709489     -3.24282875763566      0.37939353720109
  O   1.12343381866149     -2.78541660169428      1.09338383510210
  H   2.05192749813856     -2.15508016709181     -1.47786288475302
  H   4.73702564353203     -2.57084156273725     -2.69360849203296
  H   5.42716034724608     -4.10467629933547     -2.16174485165286
  H   6.71506353008151     -0.47565962288111      0.67644274681219
  H   5.41156116323967      1.46489245254754      1.61920108249511
  H   4.85423673278604     -5.86289864396828     -1.22513704675070
  H   2.12527879820175     -5.23806377000224      1.01611762546086
