26
Coordinates from ORCA-job 3128optt
  Br  1.86903435761102     -0.69820965231761     -1.44923116681587
  C   3.58063348762305     -0.19878738727051     -0.88047381624654
  C   3.92543798037766      1.06830494444929     -0.54727944187319
  C   3.16762643748729      2.38510171974328     -0.56816449066307
  N   1.77194054551318      2.30891462924812     -0.22923382704061
  C   1.53516230844925      2.08258189449928      1.19026504531063
  C   2.33012253007897      3.05073928443419      2.04472691195792
  O   3.71156164248433      2.94721418766284      1.73135236727231
  C   4.01368425437183      3.24954657764146      0.39750201457893
  C   5.43809344949213      2.75132807131277      0.14465007853744
  C   6.33393002273328      2.93632622791987      1.28691116758427
  N   7.03966643695100      3.13965727420089      2.16365922160783
  N   5.20482921094423      1.34047877703305     -0.16256770820946
  N   6.20294569851298      0.47246575719012     -0.12448813957553
  C   5.92162982440262     -0.74816010661102     -0.42899105109765
  C   4.59437764636976     -1.24990733291872     -0.81990413907538
  O   4.40130393693909     -2.42139464624643     -1.07386993655349
  H   3.25536075562945      2.78963670408475     -1.58177920276333
  H   1.27926468895147      3.12495887939520     -0.56789146160917
  H   1.83416806626282      1.05700717860364      1.42626744093954
  H   0.46715998443320      2.17135440312200      1.38666988728451
  H   2.24808643925321      2.82517161705138      3.10653976541642
  H   1.99184905092146      4.08139535408176      1.87297791045221
  H   3.90190802096738      4.32063112745257      0.19899591090143
  H   5.87781349211849      3.25650244008271     -0.72074197364916
  H   6.73740973112081     -1.45885792384490     -0.39190136667100
