27
Coordinates from ORCA-job 3132optt
  Br  1.10045886023437      0.03600978086567     -0.42655118079654
  C   2.96442688156319     -0.12683362541109     -0.27295582013764
  C   3.60380719074507     -1.30639679784578     -0.21240514298007
  C   3.18057834484483     -2.74063888091426     -0.24693164691746
  N   3.44130978428612     -3.33070401487111      1.08938571104458
  C   2.88446046299360     -4.66519547924946      1.23750933032651
  C   2.97331619575810     -5.10712396332338      2.68211535540119
  O   3.17238970233873     -6.23830697714652      3.01985003539186
  C   4.93205552541820     -3.31590141453744      1.24745719495177
  C   5.47236998247625     -2.72413519311829     -0.07963587252672
  C   4.39023605024213     -3.31769251746497     -1.00918243070401
  O   4.47586515149966     -4.05822562581696     -1.93493114993011
  C   5.04645228303062     -1.28249902569270     -0.11773831468742
  C   5.75395638511539     -0.13969130718624     -0.08179713177387
  C   5.06040539807983      1.14082176342833     -0.13312277892727
  N   5.53985011346029      2.32176622685515     -0.10152003638863
  N   3.66223287633861      1.03567051422976     -0.23402367601509
  H   2.18923569830472     -2.96662373198302     -0.62428057071698
  H   3.35129439374978     -5.43138423300799      0.60315180413162
  H   1.81807126082825     -4.62490372504372      0.99146855446352
  H   2.82569944989394     -4.29738398981816      3.42266729310736
  H   5.31279400089340     -4.33231214766536      1.37872329048378
  H   5.22241754331476     -2.71534924478740      2.10908642530600
  H   6.50563470595767     -2.95258310785811     -0.31430660495950
  H   6.83375049288910     -0.12485635530549     -0.01989767259180
  H   6.55182192417685      2.30159615315987     -0.03147552032355
  H   3.17510934156646      1.91987691950870     -0.28065944423153
