26
Coordinates from ORCA-job 3134optt
  Br  1.93084004188568     -0.51643058366986     -2.29297392761469
  C   3.39820310803112     -0.30535890201377     -1.12303924441368
  C   3.59746729494853      0.89154341794873     -0.44046673309745
  C   2.77391894263246      2.15487875120274     -0.38243377738658
  N   1.44539531087483      1.89473251768078      0.13824572617866
  C   1.29811706663909      1.40868913532062      1.50052728895055
  C   1.41993875114762      2.46560156357463      2.58558903239050
  O   2.70780628080347      3.07667413267115      2.59524958761864
  C   2.98058331706702      3.86873945032016      1.50524896028562
  N   2.68030224946700      5.08383827987475      1.41830239297744
  C   3.69993413317290      3.14496210321152      0.40692984482370
  C   4.86590872379584      2.30875358050467      0.95017202853776
  O   5.70822684409441      2.67483845657714      1.70995366901045
  C   4.74947033949009      0.94733967289812      0.31727218307021
  N   5.61935681234337     -0.04683828074904      0.45627030933649
  C   5.29914416792192     -1.14069648199041     -0.21374852131420
  N   4.23090397128116     -1.31130700113088     -1.00410727623022
  H   2.62828076610417      2.53629240270476     -1.39454494678296
  H   0.81420489503967      2.65734441180116     -0.06876184952610
  H   2.04611573900547      0.63064522009016      1.67284533340290
  H   0.31877274511381      0.93219969569497      1.59433600429386
  H   0.65211146841434      3.23726190809859      2.45587138567327
  H   1.29873227317232      2.01759020001996      3.57129503552274
  H   2.19904421830172      5.39575598230670      2.26333512590558
  H   4.11799924674630      3.88857640481743     -0.27310215473344
  H   5.96722129250566     -1.98962603776484     -0.13126547687906
