26
Coordinates from ORCA-job 3136optt
  Br  1.31690139114324      0.40013057988115      1.07742370877802
  C   3.08625314077058      0.25172114276107      0.48873481215289
  C   3.90188725344771      1.31406623391803      0.34452425003522
  C   3.66037449930458      2.78521421045395      0.58262518490627
  N   4.68009610756393      3.38202436309526     -0.27570648307166
  C   5.87605421271983      2.54500383222171     -0.14779178285495
  C   6.67273820815632      2.76363894567699      1.17036060406320
  O   6.67334781448204      4.11775858490464      1.59231406197030
  C   5.79704007169385      4.40444176272371      2.63322737209306
  O   4.44192313862761      4.38038925882536      2.19780481861107
  C   3.89132797388034      3.13332156890313      2.06620801334110
  O   3.67470115911252      2.42444527374558      2.99550757518990
  C   5.24442702158865      1.17646581369273     -0.13139222018535
  C   5.70434916197145     -0.04694569050931     -0.44647719467646
  N   4.87399054572419     -1.12152127327225     -0.30091805247972
  C   3.55379871558419     -1.09471951795422      0.14546567121421
  O   2.90612340659818     -2.11609195462034      0.21199202025251
  H   2.65315333470584      3.10068494950452      0.30284453745399
  H   4.86568184603800      4.34674330027770     -0.03078090368314
  H   6.52994388317927      2.71487091410104     -1.00274160736304
  H   7.71046667181786      2.46618215481307      1.01125367588152
  H   6.26896662113309      2.12860777443036      1.96606950456775
  H   5.91096966513618      3.69253959265344      3.45636127801648
  H   5.99548219642908      5.42284360413838      2.95072306498704
  H   6.69680245619770     -0.25220747982733     -0.82305511098089
  H   5.19619950299371     -2.04660794453839     -0.54657679821932
