25
Coordinates from ORCA-job 3141optt
  Br  7.30630562723998      6.04505607911624      4.70703350439794
  C   6.68325175494306      5.61662683927071      2.98883364341734
  C   7.37483905730497      4.85196601055945      2.11329414923229
  C   8.78761310876429      4.40917330417270      2.42701085976440
  N   9.74885036167400      5.49280281582871      2.60229253993347
  C   10.64869183878836      4.98948855097223      1.67654641125240
  N   11.81140233437528      5.26136713406228      1.28630043584153
  C   9.66192700657703      3.92066238968518      1.23799644623839
  C   8.99675653762858      4.13766671002108     -0.10821610229630
  C   7.58035038651909      3.60693678668299     -0.02993323067962
  N   6.81025635165809      4.38893534297143      0.94944743418458
  N   5.49032810525972      4.36353209735640      0.72303544368341
  C   4.69118034063709      5.09111391461587      1.39913831497270
  S   5.19730127919972      6.36281169053778      2.49755369234302
  O   5.49159421389506      7.53186815435881      1.71956224387522
  O   4.27158584487159      6.45707779862915      3.58589838833362
  H   8.75645145125555      3.70662818265189      3.26409388362819
  H   9.91240963565839      6.04454423284630      3.43100652947566
  H   12.21501030214467      6.05189943877279      1.78601733129341
  H   10.03034779746070      2.90274648150397      1.35111380312065
  H   9.54648760108665      3.63282272204389     -0.90088334132126
  H   8.96941115080631      5.20291046124786     -0.34979449993163
  H   7.57076996923977      2.55076932568779      0.25586413617607
  H   7.05245167677319      3.70989825402391     -0.97364392553494
  H   3.62442626623863      4.98269528238045      1.24343190859942
