26
Coordinates from ORCA-job 3147optt
  Br  0.97105574765656      0.25485799986365      0.24056590383013
  C   2.84388231161332      0.14352531782815      0.04269309590408
  C   3.48244073038062     -1.07694326558253     -0.10117008112938
  C   2.72123369751783     -2.37499379782316     -0.14058213182068
  N   2.11184961603196     -2.75607231128591      1.15411211156918
  C   2.24468796585216     -4.01446714454946      1.23422189556063
  N   2.90174627884384     -4.64811152452737      0.18733987922854
  C   3.59974401089636     -3.57730547393529     -0.52179564640065
  C   4.99833738199326     -3.36794282728354      0.04095344297621
  O   5.58772169218249     -2.19652905800473     -0.48340265420305
  C   4.88816842744722     -1.04772891567658     -0.29554667117044
  N   5.62483138700771      0.03847004202096     -0.35347239958786
  C   4.96091758652068      1.17463373097159     -0.20120884071855
  C   3.57605646202040      1.32496597257798      0.01033292998255
  C   3.31148508264129      2.72586018020992      0.11965857353679
  C   4.50937878812901      3.35510073720524     -0.02523388928764
  N   5.50789005617055      2.42439154211163     -0.22044484417265
  H   1.89940259086593     -2.27146945586104     -0.85741531715678
  H   1.84933350787557     -4.60700511240194      2.05172078119605
  H   3.39877030310735     -5.50469843012138      0.38446724572388
  H   3.63432950213181     -3.74852913383159     -1.59664025885509
  H   5.66511933775154     -4.18760730236872     -0.22378115619172
  H   4.93486895868427     -3.29502053776725      1.13300320119380
  H   2.35581825311926      3.19365248776466      0.28241558866252
  H   4.74100884732906      4.40661663943644     -0.00558767618171
  H   6.48692147622991      2.61034964103030     -0.35120308248818
