20
Coordinates from ORCA-job 3149optt
  Br  1.07151710779202      0.02390755550036     -0.06015174221731
  C   2.91388756899675     -0.09653821264377     -0.05340395401289
  C   3.59446753083373     -1.27874989743419     -0.05170727164593
  C   2.97868131524240     -2.59182269560815     -0.05232424005779
  N   1.74728859921289     -2.97626867227568     -0.05336147358945
  C   1.85979510723397     -4.39745933400905     -0.05258838011201
  N   3.04153380010194     -4.90863898407693     -0.05077648720222
  C   3.86294468499442     -3.78768864389837     -0.05076614401063
  N   5.14175589051300     -3.77492428238052     -0.04921284629380
  C   5.71972875374929     -2.51840358456690     -0.04872329830436
  C   5.05671632051344     -1.33303599425412     -0.04937309896390
  C   5.86960070020020     -0.09932332725831     -0.04827962949018
  O   7.07412381370230     -0.09558693053053     -0.04777619086868
  C   5.12785467627008      1.22520594353843     -0.04735096155404
  N   5.73839736285277      2.32475317818482     -0.04487061200319
  C   3.61314127457044      1.24077643652021     -0.04947555646971
  O   2.99889207384321      2.26541791564373     -0.04784911329018
  H   0.95662813905121     -4.99243360221026     -0.05251640772814
  H   6.80171879774905     -2.50357025364225     -0.04763323689335
  H   6.74932648257686      2.14138338540152     -0.04385935529225
