24
Coordinates from ORCA-job 3162optt
  Br  1.03259102874806      0.03296761222080     -0.43145811099401
  C   2.88812471362780      0.03915282284634     -0.17141036466682
  C   3.63131695355342     -1.11252300727434     -0.32405748583728
  C   3.17586738319557     -2.50320121199555     -0.65384873307582
  N   2.35311459804294     -3.07650282173059      0.42358588566944
  C   2.99946157982520     -4.04484148835235      0.91245175762901
  N   4.24196172323047     -4.31184851735559      0.34725332515416
  C   5.03620672685753     -5.39379512406306      0.58965696902202
  O   6.05588915828722     -5.61333429813695     -0.01123244939855
  C   4.50341921395343     -3.33333151702166     -0.70549345988379
  C   5.66896898117874     -2.37777824595718     -0.38705091139911
  C   5.01011110378618     -1.04783022380737     -0.14403604931973
  N   5.67552756465106      0.05177999083446      0.18375188595171
  C   4.95646036508434      1.15345695346292      0.34197150465240
  C   3.56908786861406      1.21029062095395      0.17301712591051
  C   2.88709693062436      2.45368424066602      0.35701415418896
  N   2.35550512365098      3.45856235398523      0.50865565145142
  H   2.60199841078169     -2.52756000735771     -1.58177012154275
  H   2.64785507459835     -4.66416669777019      1.72997745003499
  H   4.64961918010430     -6.04482459858033      1.38903457898287
  H   4.65775703066823     -3.85583365516103     -1.64711043722842
  H   6.37274222079170     -2.30778414773906     -1.21676730658105
  H   6.23928198109877     -2.70406785459937      0.48323377801267
  H   5.48903508504556      2.05732882193264      0.61463136326719
