26
Coordinates from ORCA-job 3163optt
  Br  1.30655774261353      0.29218072638076      0.03117525869303
  C   3.16895801303292      0.01664336748696      0.06565094199694
  C   3.73156324702667     -1.20094151884059      0.04749238136949
  C   2.91515777766181     -2.46746662268702      0.02822300756052
  N   2.23308385633630     -2.72502955886356      1.29656905070919
  C   2.09809437500439     -4.05162969998925      1.61250443995670
  N   1.42788178618728     -4.65168669164565      2.50001149811549
  C   3.00876753883420     -4.78830382120515      0.64166516773398
  O   3.15767920014743     -5.96652995398627      0.55145612432904
  C   3.75907207803822     -3.73482444231814     -0.16894717526847
  N   5.04692963604984     -3.58989484283954      0.48584518612700
  C   5.85997698602918     -2.55513891949242     -0.12444078646036
  C   5.18246782015945     -1.22172378739804      0.03013063335876
  C   5.87550510990207     -0.07381764520645      0.09535103248988
  C   5.21741253701689      1.21780717261729      0.17372493041351
  N   5.69936190107066      2.37492317158064      0.28014221714625
  O   3.82481880038022      1.17021187799923      0.10748567034848
  H   2.18541047643435     -2.39787397856303     -0.78561821430448
  H   1.61378671799720     -2.02894876647481      1.68045905519188
  H   0.87236555514350     -4.01073073519090      3.06546656158634
  H   3.83105138733157     -4.01506259623484     -1.22688442905513
  H   5.52687992111120     -4.48185430263847      0.50042128559390
  H   6.02114190009306     -2.73211921540612     -1.20047118033599
  H   6.83578432956710     -2.52961767407321      0.35900611331704
  H   6.95776887892284     -0.06919607517771      0.08872862984344
  H   6.71352242790807      2.33762453216634      0.31485259954357
