24
Coordinates from ORCA-job 3164optt
  Br  5.49106722571067     -1.26256586041516      2.11661413730785
  C   3.95833930923673     -0.23753723105339      1.73479251218368
  C   2.70389145298078     -0.81290667733380      1.69086800908878
  C   2.29736566089330     -2.23986106235724      1.94055352882992
  N   2.66371642632168     -3.16858608671116      0.91586766883903
  C   2.48267597006213     -4.37569770036924      1.26801867474872
  N   1.57722021155879     -5.05376997893495      0.50097520037342
  C   0.36161284234780     -4.37606179684887      0.24365557974662
  O   -0.48471379580589     -4.91840688069700     -0.42499754318965
  N   0.12814607448372     -3.13711203434370      0.80827054820681
  C   0.72923525671278     -2.22596627233035      1.79312127944815
  C   0.38021879326462     -0.79243775883960      1.34921165752848
  O   -0.70722289716566     -0.43481427301108      0.99309285446330
  C   1.62557985349249      0.00430445608729      1.39409879430937
  C   1.81318402723170      1.35855246292729      1.15099531695337
  N   3.01940880567334      1.90719211835060      1.20722700965030
  C   4.06297233811672      1.12754793407885      1.48887949598553
  H   2.58466151321532     -2.55007807216807      2.95677053244838
  H   2.78345401586650     -4.80844115940291      2.23369404170615
  H   1.51302662225172     -6.05846336145582      0.42919840471057
  H   -0.77835652218344     -2.80307661836208      0.50461319490312
  H   0.28001422151887     -2.39056696772145      2.77871880667327
  H   0.97601939198527      2.00359928911551      0.91044280757151
  H   5.03448320223006      1.60715353179633      1.52531748751329
