22
Coordinates from ORCA-job 3174optt
  Br  0.90641415361112      0.74913402527407      0.44358759612051
  C   2.69832193595412      0.26549177974962      0.18002711431723
  C   3.09275042547515     -1.02796596408396      0.10326046209976
  C   2.52361847986750     -2.43691514347718      0.14788483452333
  N   1.73900073492377     -2.74307925634432     -1.04100422865558
  C   2.35901127565232     -3.65803595278773     -1.66145829003201
  O   3.51076175947048     -4.15129743921649     -1.14971914139703
  C   3.79919691824380     -3.38643151637038      0.03134185321635
  C   4.95041907864006     -2.43288396531130     -0.12649833095079
  C   6.30306784240612     -2.17628187973272     -0.26197527352835
  N   6.56085204197086     -0.83292102592389     -0.29435174915124
  C   5.38585737787656     -0.23559966162652     -0.17217635144388
  N   4.99433893458869      1.05856009364984     -0.10767009353982
  C   3.71840496920167      1.27840949148562      0.05752344403893
  N   4.41420716142818     -1.18939621134190     -0.07708909098301
  C   1.93542919973914     -4.24888473627536     -2.89373440346324
  C   1.59459166110042     -4.74889900092658     -3.92424273255104
  H   1.92578629536253     -2.59343863400787      1.04582641931351
  H   3.91241415439436     -4.09089336570128      0.85140255781024
  H   7.10580589971835     -2.89006910208456     -0.34716608213373
  H   3.40101899559507      2.31443205226335      0.11085251476466
  H   1.28573070477967     -5.18803458721042     -4.84362102837478
