24
Coordinates from ORCA-job 3175optt
  Br  0.94709826681173      0.24747653790045     -0.06373099246862
  C   2.79369609632625      0.10516432736461      0.15114398351585
  C   3.46797155256708     -1.01674662642902     -0.15779232953585
  C   3.00735295028130     -2.35774287279167     -0.66148529122307
  N   2.18261604651871     -3.05119964722599      0.32952615721595
  C   2.91509747360007     -3.95689463163949      0.81026282397356
  O   4.17239592475805     -4.11687231723115      0.34024109250381
  C   4.31663729430425     -3.19815588906866     -0.75687354706012
  C   4.45570436525915     -3.99283197236156     -2.04972041615062
  C   5.71484439974122     -4.72856026602522     -2.10923887307950
  C   6.76512009159044     -5.30112874815424     -2.13400552187048
  C   5.48098696658049     -2.24644289161688     -0.48579051969784
  N   4.82021468157862     -1.04130738450651      0.00677051453092
  N   5.54133398647129     -0.02174384560067      0.45748865563238
  N   4.97022310893808      1.04775662936620      0.77871367429911
  C   3.55121473070813      1.24428687294669      0.65833248166226
  O   3.08143848663913      2.30618743714385      0.96781922976905
  H   2.46826404329315     -2.25918682755493     -1.60506684220599
  H   2.62991100585063     -4.64581535152609      1.59452443044367
  H   4.39468347434918     -3.30081944104046     -2.89411385843127
  H   3.60873071518574     -4.67878918444427     -2.12722707603934
  H   7.69285743811368     -5.82202647273060     -2.16200232195527
  H   6.03691778906291     -2.01956025842815     -1.39623536150194
  H   6.16568911147065     -2.64404717634623      0.25945990767337
