25
Coordinates from ORCA-job 3189optt
  Br  2.06480194474881      1.70267569208099      2.56813923277730
  C   3.01573470717712      1.25995287485150      0.98955611249908
  C   4.24314234270127      1.87151151340404      0.81761349974856
  C   3.89159089605497      3.33185817504548      0.71615716548393
  N   3.13573940405159      3.52113556013847     -0.32172885499911
  C   2.29994496939757      4.53592167434474     -0.00002841405375
  O   1.19582971792342      4.69947020181042     -0.75027487638842
  C   0.72912214401284      3.43419119390252     -1.30437250162678
  C   0.30877778366323      2.42191403665456     -0.21092750780181
  C   0.79365590883056      0.93716798292937     -0.23631595824909
  C   2.28038029903743      0.63060554785640     -0.07133896794582
  C   2.98638060582967      0.02502846338022     -1.05153275175615
  S   4.69914261244453     -0.07235686793801     -1.12620125030205
  C   5.22468332754150      1.35498005231388     -0.11990806538025
  O   6.34279931616993      1.75936371178986     -0.28023469285990
  C   2.67053689408620      5.03173873874985      1.21465975096803
  O   3.71446461789139      4.25177255625848      1.66336937318325
  H   1.49582464710480      3.03006587772430     -1.96274719559277
  H   -0.12819177897072      3.73180560014520     -1.90221982797942
  H   -0.78077858617958      2.35451249898918     -0.22168986642239
  H   0.55034101767929      2.86504387152189      0.75276530689307
  H   0.48606097565921      0.47894325395140     -1.17853132008696
  H   0.23249494923628      0.43015803213925      0.55238170696035
  H   2.47847809951075     -0.39984503330841     -1.90912698550600
  H   2.34404318439791      5.83138479126437      1.85153688843711
