22
Coordinates from ORCA-job 3198optt
  Br  1.07072226090653      0.29532608082348     -0.52957262452793
  C   2.88245791483876      0.04245804301797     -0.16936041956513
  C   3.40317409143574     -1.12115421577419      0.22632863960323
  C   2.74241890162939     -2.45368752488060      0.42108608089128
  N   3.11626504307524     -3.34481777821811     -0.67460716460072
  C   4.30535022134278     -3.72151834311036     -0.83864053408065
  O   5.42464614415711     -3.43872664290009     -0.13206579754342
  C   5.35750070884034     -2.50196070587512      0.93714256463821
  O   4.58582650029468     -2.97641614513583      1.99279363981024
  C   3.17325896906515     -2.99977328867065      1.79546105154196
  C   2.69220038239606     -4.38098385484396      1.97405391214181
  N   2.29711773704133     -5.44440274287053      2.12435108548323
  C   4.83145339704764     -1.17238666691358      0.46091379239030
  N   5.64409714515721     -0.20333424163360      0.33979973134063
  O   5.11466180657322      0.99296803812916     -0.06854049372485
  C   3.77308229257930      1.20057868211055     -0.34280749122733
  N   3.37097108442485      2.32777637979436     -0.71714901613499
  H   1.65867039128937     -2.35621568316039      0.42113640110827
  H   4.55017643429397     -4.38831162211057     -1.65896324102583
  H   6.37533428671721     -2.40824192445421      1.30194396973883
  H   2.71843740430763     -2.38460416249127      2.57615447678777
  H   4.13717688258641      2.99642831916759     -0.77745856304491
