25
Coordinates from ORCA-job 3203optt
  Br  1.42210824881886     -0.00337382290679     -0.81597920996601
  C   3.20556461160820     -0.15698461604986     -0.23349657947570
  C   3.81216440861285     -1.32587417551223      0.05731552387756
  C   2.99496684618789     -2.60358375420531      0.12102231567500
  N   1.93267397455624     -2.54876966107134      1.11186779894117
  C   1.82125256676562     -3.70664051530571      1.84425487871487
  O   0.96488998232467     -3.99552944096335      2.63466583688414
  N   2.91784137686156     -4.48008080111805      1.49192574966684
  C   3.72882311609490     -3.88015174285041      0.55654575186789
  N   4.81792593418818     -4.36562993774705      0.16147639507046
  C   5.60620940367152     -3.56113012919906     -0.75153836806417
  C   6.20002903704483     -2.36456055425217     -0.01733734305193
  C   5.26787070671859     -1.19001515843415      0.14743920362768
  N   5.84008205090665     -0.04292118860371      0.26362200750242
  C   5.08321214396945      1.10585649048821      0.34467728939943
  N   5.40862514206048      2.23212789863768      0.77980144069174
  O   3.79414093483206      1.02258117374179     -0.20870445647161
  H   2.58184782569230     -2.80215850774863     -0.87798503451280
  H   1.11228478118791     -1.97869371125776      0.99104085290948
  H   3.15175290443996     -5.34051494450931      1.95913006190159
  H   5.02061004434550     -3.22666962794935     -1.61789796495079
  H   6.41442325078319     -4.18098843885994     -1.13439410957647
  H   7.08024514282746     -1.97525924368949     -0.52826908729102
  H   6.52759289989274     -2.69426778555145      0.97228486318817
  H   6.37486266560834      2.20223219491749      1.09453218344207
