22
Coordinates from ORCA-job 3218optt
  Br  0.98666155881457     -0.12680809063295      0.21816322354500
  C   2.83556273976294     -0.00331527544450      0.01644094205443
  C   3.51997320051892      1.14168374340492     -0.18091241315500
  C   2.91687657018100      2.46938024606620     -0.30475311047989
  N   1.71613102523843      2.69261741751532     -0.83257388547893
  N   1.53935870332606      3.97631583410692     -0.67155238441947
  N   2.50457103678678      4.64010669584949     -0.08125923252679
  C   3.42172137418923      3.70879107071040      0.15613395792623
  C   4.70251745032712      4.03391930164268      0.76011127521262
  C   5.81228788081513      3.34277463626707      0.51494355099706
  C   5.89644960270292      2.20316620875285     -0.43403272052482
  N   6.74973966381955      2.12938178548925     -1.36374811458706
  C   4.98085559561355      1.02463040189530     -0.24183743659513
  N   5.62660348946954     -0.06997096755034     -0.12034198191587
  O   4.91939850757230     -1.22227431845314      0.05759110432146
  C   3.54853890255296     -1.28225656084577      0.12323082232605
  N   2.97127476615435     -2.38838825693768      0.27425303341640
  H   0.69918701005988      4.43386052236241     -0.98945609049300
  H   4.73224762396652      4.92247722816279      1.37827405810310
  H   6.75484376361209      3.66031818373906      0.94624632254369
  H   7.36047422243364      2.94908097149967     -1.36261481984680
  H   3.64972531208244     -3.14649077759998      0.32669389957673
