23
Coordinates from ORCA-job 3221optt
  Br  1.20341796579121     -0.20093515685054      0.18767186937293
  C   3.04750145972673      0.04960861542206      0.07385408782879
  C   3.65714530288898      1.25073159970261      0.05768495743352
  C   3.04243597073216      2.56627187602761      0.03631516072379
  N   1.78121243154906      2.95499738481240      0.19349013645877
  N   1.83208667090724      4.25052236734656     -0.00005564606404
  N   3.01968383350359      4.77472487678136     -0.25752985221660
  C   3.80312879552020      3.71463595406807     -0.24631972305084
  N   5.16993093431539      3.67859888598141     -0.46811702479699
  C   5.87555044361964      2.53625378202276      0.10162217142733
  C   5.11397209513349      1.23781244556215     -0.03622132346002
  C   5.76945729911247      0.07507135542126     -0.15640535593467
  C   5.06832644984302     -1.19794560851210     -0.16616109166996
  N   5.51676126576916     -2.36657115711248     -0.29378997506391
  O   3.69202200264366     -1.11404357037323      0.00816884524140
  C   5.85556110904024      4.67766381112919     -1.10971000242536
  O   7.05219196663201      4.68231418983629     -1.24500481756811
  H   1.00789847541954      4.82494824333856      0.06101777241747
  H   6.04608504546987      2.71987340028520      1.16865417125894
  H   6.84562511474733      2.47488853518065     -0.38566989614553
  H   6.84780595029634      0.03966107483607     -0.23711013148723
  H   6.52573661823391     -2.35129479000311     -0.40769565092165
  H   5.18946279910468      5.46421188509724     -1.48868868135803
