23
Coordinates from ORCA-job 3224optt
  Br  1.30964900633692      0.01388944535366     -0.43904915177694
  C   3.11950391596379      0.29341178832282     -0.02924109337159
  C   3.63262890359255      1.49846266061412      0.29945858343448
  C   2.88973534170250      2.76863088178450      0.28924835492140
  N   1.72247758077037      2.90416102522017      0.84938890141552
  O   1.34071104461492      4.19783861980585      0.62315471992220
  C   2.29513454419266      4.82423829172263     -0.06590215994300
  C   3.32652584216576      3.99088193862829     -0.31923440633045
  C   4.60463210242611      4.28530098360809     -1.04116566875218
  O   5.66470930118288      4.65989811116759     -0.17241222107633
  C   6.33470776016583      3.59192458851195      0.39454938821342
  O   5.41564500773581      2.78044112364012      1.12086625102945
  C   5.06185005019017      1.58827556720155      0.60168967498073
  N   5.96982717926508      0.70761942211782      0.43652942440659
  C   5.71087437993350     -0.55625206087291     -0.06032692884712
  N   6.57837771532505     -1.39782795747812     -0.41932308478132
  S   4.03032094481611     -1.16255179057720     -0.15931552003358
  H   2.10911594207433      5.85864792523222     -0.30595988828175
  H   4.45910533782844      5.12720135122166     -1.71537193906906
  H   4.90691125174169      3.42002822556702     -1.64501292669407
  H   7.05215317959432      3.99966147861296      1.10027584997600
  H   6.82735006524620      2.96509511537178     -0.35627159045961
  H   7.51205360313496     -1.01797673477661     -0.26457456888278
