26
Coordinates from ORCA-job 3232optt
  Br  1.34946882703050      0.10160232842813      0.47763415602400
  C   3.19423361170386      0.15946814894147      0.12202817696383
  C   3.87122249143512      1.27654269022999     -0.26239744406056
  C   3.19519183303065      2.54876853245830     -0.54720635712910
  N   2.16291474376066      2.60700747355620     -1.33488827049813
  O   1.77103851494086      3.88519912110806     -1.38526071159647
  N   2.56479791158198      4.68288439874978     -0.63387034515794
  C   3.45388582935222      3.89975099769767     -0.11024186852788
  O   4.40415142537806      4.42035907201108      0.66437035241775
  C   5.27240569374225      3.54179482414707      1.38069492914759
  C   6.47503886464767      3.14218630514894      0.54657524035673
  C   6.12405148604534      2.36599229221619     -0.73120831656493
  C   5.30626375976215      1.14183109959069     -0.42010508070882
  C   5.91481583262530     -0.04896354608184     -0.23084064628110
  C   5.18832813991746     -1.24630763127699      0.14184768219238
  N   5.60826788637020     -2.43430971896501      0.33534295106970
  N   3.81962517471633     -1.01995253711329      0.32142059818804
  H   4.71316946102818      2.67310356317492      1.73468716266795
  H   5.59087082431604      4.11379065166728      2.24997498398492
  H   7.12324580871447      2.52459110972939      1.17384597135535
  H   7.03236002229388      4.04168532315418      0.27940422994254
  H   5.58855260944380      3.01663029877962     -1.42522313526489
  H   7.04753654956216      2.06569121066033     -1.22543025091376
  H   6.98570005778955     -0.14382717892185     -0.35913090744537
  H   6.61037402870951     -2.49419159084835      0.18729603973477
  H   3.28448861210178     -1.82732723824198      0.61068086010340
