23
Coordinates from ORCA-job 3233optt
  Br  1.22492854167612     -0.31322877898326     -0.82547499592622
  C   3.01677183516571     -0.00251477079927     -0.35560727043794
  C   3.54043719537546      1.21333449653807     -0.02103168041943
  C   2.74929803449653      2.43154196372602      0.21246290191083
  N   1.54896292628822      2.33893203367542      0.74185707374442
  S   0.86673293216006      3.81679267047299      0.88190187894200
  C   2.16750506647397      4.65811864688436      0.23044064543886
  C   3.16072028636749      3.77193121747535     -0.09242940015900
  C   4.43139276153097      4.24151226611985     -0.68273205698314
  O   4.53761494206215      5.32935701517081     -1.19263548355040
  C   5.63456319420671      3.32112027877844     -0.61222578881178
  O   5.57688990153764      2.40848064878734      0.47113229711393
  C   4.97134883715010      1.21859694216001      0.19319156222438
  C   5.72925935492947      0.10437914575841      0.16285962658368
  C   5.14620138968738     -1.18580088562389     -0.12643732097703
  N   5.68457277082959     -2.33974020354701     -0.18501529542490
  N   3.77780756723933     -1.11394023667205     -0.42055144680185
  H   2.19784019291222      5.72883234039621      0.09911482381002
  H   6.51678908883542      3.94210064324453     -0.46961173077255
  H   5.73436146796217      2.78915636431581     -1.56456789280125
  H   6.79177518981886      0.17381249133273      0.34617697612261
  H   6.67461618929997     -2.28915346258787      0.03173283046168
  H   3.35361033399442     -1.99262082662303     -0.68555025328690
