19
Coordinates from ORCA-job 3234optt
  Br  1.20715108153385     -0.32742251402933      0.08898010487799
  C   3.03746702061768     -0.01823392610924      0.09473420912554
  C   3.61154453409456      1.20994863129611      0.09824204974861
  C   2.94448674771530      2.50400953507952      0.09946049925638
  N   1.68240199430170      2.74046661040440      0.09869295783614
  S   1.33217592529215      4.39724596099968      0.10087191357574
  C   3.03948636289864      4.93400538737938      0.10308480761707
  O   3.44475933581133      6.05635122766314      0.10510627390453
  C   3.82044478675545      3.66581234532783      0.10211824288176
  N   5.10161740609809      3.64586465090671      0.10404746678896
  N   5.69327591965791      2.45932655591684      0.10380989907224
  C   5.06611299454360      1.23242035329613      0.10167095183071
  C   5.77198608500858      0.07412562602812      0.10282719414772
  Br  7.65085451608301      0.08101043873568      0.10922254303363
  C   5.11654720471752     -1.22013622228849      0.09897788131914
  N   5.57620887284871     -2.38561545414124      0.09849905522146
  O   3.72037575467406     -1.14908842986748      0.09481644472860
  H   6.70202501233399      2.49188788623576      0.10545765929217
  H   6.59107844501385     -2.38997866283353      0.10137984574162
