23
Coordinates from ORCA-job 3238optt
  Br  1.20779493637677     -0.04667001779695      0.71618339442678
  C   3.02100722583486      0.02955120764110      0.24427159816809
  C   3.67250514001443      1.16033214979551     -0.15536799814138
  C   2.96941664434549      2.41900817261065     -0.45589866037643
  N   1.89694995898874      2.38614183010763     -1.21678798510015
  S   1.31752582553645      3.88555753423635     -1.36847060383832
  N   2.42299878470826      4.65786907233701     -0.47397577344189
  C   3.27229266801338      3.77210219449558     -0.03224373123539
  O   4.30117459388129      4.21883526401424      0.70649483673504
  C   5.11637644744255      3.31471204798217      1.42587061927011
  O   6.22243709423782      2.90886731413469      0.69658237916233
  C   5.95584256460447      2.23402682135367     -0.52283350940120
  C   5.10358378383668      1.00310356991883     -0.29905227373309
  N   5.73957312911959     -0.11455242572634     -0.19519832267800
  C   5.04646969622787     -1.28513504850380      0.08038461560746
  N   5.51999616182426     -2.45793312221780      0.11370485246879
  N   3.68196167395353     -1.12834622803264      0.38579356376643
  H   4.51271010602934      2.47035042708051      1.77037740116533
  H   5.50166631312058      3.87225563499774      2.27415923680736
  H   5.48503798433971      2.91625828265715     -1.23632916629382
  H   6.92093415243571      1.91547428034555     -0.90439450299794
  H   6.51452535331262     -2.42768487187485     -0.09070559833456
  H   3.19821976181556     -1.96412408955600      0.68343562799446
