26
Coordinates from ORCA-job 3240optt
  Br  0.64737074287058     -0.22672507244590      2.25939707852383
  C   2.29184676740120     -0.07954611387162      1.37817356924812
  C   3.15703988415672     -1.10052960183730      1.25459231814878
  C   3.06511529407727     -2.46311825149253      1.83801262956738
  O   3.05600975932142     -3.47442000893832      0.84091224035865
  C   4.29212633783175     -3.16833390811370      1.44711005446344
  C   5.16900241462910     -2.25440131107703      0.60858846740741
  C   5.57951528916234     -2.84346599421659     -0.75374847028043
  C   7.05528080594528     -3.25439646852575     -0.59559557504578
  C   7.49795238639230     -2.50706742016661      0.63294047069788
  C   6.48456952597444     -1.95237255132059      1.28219540209606
  N   4.30226300757802     -1.05509787229183      0.49947243024064
  N   4.59300790871990     -0.12159166786706     -0.39585740043262
  C   3.92673878599661      0.96604919927167     -0.42784694111609
  S   2.74413912087280      1.49240657291648      0.76916283720823
  O   3.44470360093771      2.21450602758111      1.79267299749428
  O   1.64584364737791      2.12553893699366      0.10070727185887
  H   2.49214727473484     -2.64638140828675      2.73469264198217
  H   4.75077476913167     -3.94526716756760      2.04533578964442
  H   5.49281747580201     -2.05377414966475     -1.49773240417974
  H   4.92202384774061     -3.66001460596374     -1.04621867759639
  H   7.65334387669283     -2.99862293330878     -1.47090801952485
  H   7.16535662388038     -4.33142023996719     -0.44325943824787
  H   8.53206250097012     -2.45782823817326      0.94792970933263
  H   6.53811586263691     -1.37998463465280      2.19926283403779
  H   4.13483248916521      1.68985888298679     -1.20699181588679
