22
Coordinates from ORCA-job 3245optt
  Br  1.08842964884076      0.35278768372753      0.10915944042783
  C   2.95196469537286      0.12306314479858      0.00799631617417
  C   3.56281583665578     -1.09067556865426      0.03421085262864
  C   2.81632948683733     -2.36633841504510     -0.00344427415873
  O   3.25509907060542     -3.38111215166817      0.86810973463269
  C   3.51985395094747     -3.56581302475592     -0.51778706196731
  C   4.92490734164948     -3.41601071775819     -0.92324167322348
  C   5.58537345648264     -2.30752421497654     -0.60833632935184
  N   4.95542551188169     -1.20084254594033     -0.00851934946527
  S   5.94560192057389      0.01344706808718      0.64261532089493
  O   5.78244985026014     -0.00813635068857      2.05388746297064
  O   7.23795095868518     -0.14311472134344      0.06124299816680
  C   5.10921879489730      1.36017489348188     -0.01330163157549
  C   3.75491455350410      1.29475797105630     -0.14729715714303
  O   3.29434081699591      2.48036196344343     -0.53248076770432
  N   4.35527225286734      3.35654559852516     -0.66951168433245
  C   5.42985226894231      2.69572350177652     -0.36474405271637
  H   1.74518938199697     -2.28045706047715     -0.12273516254421
  H   2.92408945609930     -4.34033165718983     -0.98524471941160
  H   5.43334167734298     -4.21798141001296     -1.43646742466197
  H   6.63690850181251     -2.15625612285718     -0.79986333318801
  H   6.39167056674860      3.18173213647104     -0.40024750445164
