28
Coordinates from ORCA-job 3246optt
  Br  1.13297619641056     -0.24932723857518      0.81342639115020
  C   3.00967789546894     -0.47603813107168      0.79904822636744
  C   3.56268682915497     -1.69667506538763      0.79636908223377
  C   2.80083021965959     -2.95291613204630      1.02506556200927
  O   2.00337367244205     -3.01874196038739      2.19949974184866
  C   3.08625339095909     -3.92574837864796      2.08925845795783
  C   4.18856219837312     -3.84446614902926      3.10816168256122
  N   4.62247586008644     -2.49291458893517      3.39917410488526
  C   5.84446041299683     -2.43691697517104      4.19062156433544
  C   6.54926732709645     -1.09737138170527      4.04510049537239
  C   7.00656749314148     -0.82055919222265      2.60407606833976
  C   5.84834896412563     -0.50798333405991      1.70322918933546
  N   5.28713621341628      0.62588397628789      1.73714121314757
  S   3.86061579670932      1.02281008408478      0.97380471968490
  S   5.29370601890883     -1.73548246111957      0.50370466499458
  O   5.83074809945256     -3.03744660221938      0.78339271246597
  O   5.55826974053186     -1.13549084144385     -0.77381900764310
  H   2.29980686163512     -3.33296337473321      0.13797239684779
  H   2.77817517455950     -4.94748931806493      1.87962132417257
  H   5.03907567030230     -4.38985929798380      2.69582784957684
  H   3.85305549573486     -4.38763671357626      4.00476086706713
  H   3.87392315713598     -1.96397465634254      3.83398394974713
  H   6.50976521187095     -3.21736715422191      3.81218415296015
  H   5.66821478276630     -2.65673545824901      5.25222723137751
  H   7.42606317155541     -1.08794138779851      4.69550148000492
  H   5.89856304947797     -0.28131622317360      4.37129573314159
  H   7.56148002174511     -1.67404809954003      2.21219069923685
  H   7.65592107428242      0.05571605533340      2.59217944682091
