23
Coordinates from ORCA-job 3255optt
  Br  1.10606365078821     -0.15674933424118      0.06157260174524
  C   2.97492081621501     -0.16654460863393     -0.03335568246661
  C   3.67556286313233     -1.08359970131256     -0.70553976003466
  C   3.32437840589364     -2.29833160161476     -1.55277539711935
  O   4.40122999538720     -2.25390228520291     -2.50261053239196
  C   5.49624713349821     -2.26119677535994     -1.57098616493900
  C   5.11656733096048     -1.05208348455092     -0.72730585571630
  C   5.75301192033272     -0.08167886292820     -0.08005607150272
  O   5.06397772016117      0.87060223295032      0.58945842184537
  C   3.68429542265868      0.92203894226167      0.66012781208338
  O   3.18111430464684      1.82306032505414      1.25539055722886
  C   5.14389267804004     -3.48506814465615     -0.73966125371073
  C   5.82884663363413     -4.44741185423029     -0.03971404058248
  C   5.05299258871441     -5.39729085645081      0.63015431474662
  C   3.66982913588546     -5.31504477102248      0.58955534929048
  N   2.99571030699724     -4.36083086882029     -0.07230058612452
  C   3.74640360080664     -3.50204986571141     -0.71825941482513
  H   2.34968389401881     -2.32030616102041     -2.02544379070546
  H   6.45179820748178     -2.24211925289302     -2.08319112249721
  H   6.82126012636818      0.06445474949132     -0.01200848698651
  H   6.91056765331924     -4.48449336029884     -0.00544050083116
  H   5.52239985079735     -6.19842118523732      1.18420513315154
  H   3.06524576026219     -6.04503327557204      1.11418447034230
