23
Coordinates from ORCA-job 3258optt
  Br  1.43382813330565      0.12928579821570     -1.28057046598741
  C   3.05170658699053     -0.10000982874162     -0.33452187598755
  C   3.52201931079428     -1.31356971806218      0.01212970551461
  C   2.69681429098205     -2.58097319336537     -0.08518455985831
  O   2.54361142251017     -3.11452026079164      1.24028695181417
  C   2.76914102394847     -4.45777142775718      0.78772647061836
  C   3.17076689807276     -3.97694940268496     -0.61819224526691
  C   4.61965934687412     -4.22367562978365     -1.02857111559119
  O   5.48052313525626     -3.16447341423017     -0.61865690756938
  C   5.40529832402752     -2.80726268445329      0.69492349812585
  O   5.75069257421556     -3.48764370527081      1.60208666400336
  C   4.79881707778509     -1.42761382982157      0.73308412934614
  N   5.46907863582108     -0.50328208731246      1.29223745790272
  S   5.02649604370002      1.08015392715031      1.18283040275928
  C   3.73980958390350      1.17153378476070     -0.02901200678517
  N   3.38043519518397      2.26978161290089     -0.54313019781935
  H   1.72726386740320     -2.33335078227768     -0.51109313354996
  H   1.85303632741978     -5.04965940862232      0.82356663680214
  H   3.55690219794086     -4.94613575381441      1.36383497880988
  H   2.51711826296284     -4.34449845194430     -1.40642731174621
  H   4.72585959935262     -4.25740638792474     -2.10996532659011
  H   4.96964875904110     -5.17238334358072     -0.61156673957012
  H   3.95347340250855      3.05542418741148     -0.23681500937484
