23
Coordinates from ORCA-job 3259optt
  Br  8.98448623125889      4.16912886191007      2.59891625476182
  C   8.03293847912146      3.26987891975972      1.25969861428251
  C   8.54799876173780      2.30992195432821      0.48209824741171
  C   9.95783965462417      1.83563429061728      0.59754828011443
  O   10.78687187040781      2.32233751101677     -0.46936114095269
  C   11.34109020452992      1.01149718916108     -0.67335330870653
  C   10.23291595102460      0.38582425575628      0.19259568520512
  N   9.12275661204223     -0.18767496348667     -0.52961422177982
  C   8.19100109809291      0.55151718675693     -1.22245300289191
  N   7.56860000969942      0.20434310166249     -2.26709749492386
  N   7.82116038902434      1.77701516390288     -0.58998620851021
  C   6.70940126083495      2.43089164522449     -1.07950562039060
  N   6.07979677933000      3.37731783225856     -0.51082149046904
  S   6.36355944128167      3.80073220591824      1.04387718549589
  O   6.32359604830366      5.21916269195876      1.14220622014423
  O   5.52920838068377      2.99497232457632      1.87820725759840
  H   10.36536527794747      2.09714492033634      1.57149821028033
  H   12.34089097325752      0.92852827508497     -0.24198865047677
  H   11.35188095328360      0.72814207324701     -1.72627640047211
  H   10.54101270533608     -0.29083435483333      0.98512652413231
  H   9.32460058621603     -1.06872720072171     -0.97870833635021
  H   7.89359924140148     -0.68266774209336     -2.63500551053740
  H   6.38642909056011      2.07191385765865     -2.04860109296559
