28
Coordinates from ORCA-job 3265optt
  Br  1.09026215953780      0.30060300639772      0.73486835910426
  C   2.88176242807826      0.30573064954469      0.20878717879445
  C   3.75934513417296      1.20630697908516      0.62853117721790
  C   3.76616613037361      2.39018213281156      1.56109438363422
  O   5.13366816559287      2.34623498496339      2.02074423669550
  C   5.78633520612922      2.35096716059603      0.74341477772466
  C   5.10967505151413      3.51782561014996     -0.03714528040928
  C   5.69125287086411      4.88809713938582     -0.32556556037504
  C   4.58291726313000      5.62312069394823     -1.10248238720001
  O   3.32336477099368      5.64516033448913     -0.44982368684555
  C   2.79486944243908      4.37763061958745     -0.08258239863033
  C   3.83654413658015      3.72291430121655      0.79972266059593
  C   5.12898809184211      1.12414029745717      0.14151898050180
  N   5.59990729396459      0.25756606795162     -0.64926244398195
  O   4.68953700515635     -0.71376484448123     -1.06089179212113
  C   3.35695511601548     -0.74866900189284     -0.70403678789330
  N   2.60594519798068     -1.65435320169365     -1.14641597034458
  H   3.07823256168313      2.33695626319118      2.39897032265550
  H   6.86538667360151      2.33981645509751      0.84839047513149
  H   4.82033309555277      3.11353326661091     -1.01380815163528
  H   6.58505307722274      4.84574915156619     -0.95131238440064
  H   5.93804857856114      5.41967185921460      0.59538848931692
  H   4.84361782036194      6.66756804390389     -1.26463239919128
  H   4.47396036286294      5.14225316507920     -2.08447238429314
  H   2.58028216295134      3.77108768543082     -0.97257196385633
  H   1.85939652280622      4.58236967947901      0.43578912576405
  H   4.06310198495609      4.45068410805479      1.58333925717374
  H   3.11809169507507     -2.29038260714485     -1.75555583313257
