25
Coordinates from ORCA-job 3279optt
  Br  1.01446445417928      0.10360737981007     -0.06648215400793
  C   2.88420522792156     -0.03172062895117     -0.13373260778748
  C   3.54395018925273     -1.20449581412953     -0.14606117696573
  C   3.18541056519215     -2.66835769823918     -0.09497299865335
  O   4.27143962835816     -3.23708237725965     -0.81858984679321
  C   5.34138583643022     -2.64388507649640     -0.07511836828368
  C   5.02871097601536     -3.12792915024994      1.36295439324182
  C   3.47447584142317     -3.16345519075271      1.35656473678511
  C   2.95313331942156     -4.56711741151695      1.52422912027232
  O   2.14429693993092     -4.89073800578306      2.34653766140895
  C   4.96557965789524     -1.17886370902797     -0.12384261131523
  C   5.68848772924941     -0.02898191431952     -0.08616625913108
  C   7.16021204108607     -0.02423341469040      0.01196620407291
  O   7.80136687357833     -1.02220120795725      0.23618588792508
  C   4.98372192838908      1.24775007714707     -0.14409896651714
  O   5.48922549689622      2.34889135073117     -0.17213820638828
  N   3.57954014404486      1.13440762383368     -0.15649045635597
  H   2.23002291667094     -2.96011633380954     -0.52155250381111
  H   6.30788368528799     -2.91814896758892     -0.47721985299382
  H   5.43704383215919     -2.47274566368765      2.12881654446809
  H   5.44789599840607     -4.12474649920557      1.50136266943919
  H   3.01342545950793     -2.52561682366213      2.10818335658336
  H   3.36790068538640     -5.30499894724881      0.80852173221689
  H   7.64133612577696      0.95594795718494     -0.12264617791020
  H   3.08588444754017      2.01683044586943     -0.18621011949954
