24
Coordinates from ORCA-job 3281optt
  Br  1.05223859984401     -0.22064734086275     -0.48274382856068
  C   2.93108710952076     -0.17962922627402     -0.23654515750531
  C   3.61255559449951     -1.31809299081483      0.20414182587930
  C   2.96283612524826     -2.65087601353525      0.51278249161656
  O   3.07060502853423     -3.52837297142979     -0.59219109590928
  C   4.35017830141077     -4.17011621296878     -0.54841151836597
  C   4.94288561431186     -3.84217080514546      0.82866236195571
  C   3.72346983965422     -3.38769295243716      1.62324231846167
  C   2.90661065422187     -4.56773803812690      2.10633849051058
  O   3.25194397105781     -5.70647352976495      1.98788766508678
  S   6.09789217210098     -2.48238789323650      0.75527887399246
  O   7.00198403301024     -2.68274934300794     -0.33536541738773
  O   6.57794505672322     -2.22806035405947      2.08173213485537
  C   4.98698912733830     -1.13194449240905      0.28648935312195
  N   5.61405436420028      0.00030124717075      0.02140474114293
  C   4.84317889522948      1.00670242029021     -0.35580402625996
  N   3.52115790507241      0.95997110678743     -0.50652288899341
  H   1.90506769419467     -2.51125454956930      0.72705394765920
  H   4.98564357207411     -3.81482530512736     -1.36048674061030
  H   4.19462815411070     -5.24265925756177     -0.64811041519497
  H   5.48671516560521     -4.66921524471163      1.28382388490577
  H   3.96106105402408     -2.74610757609500      2.47564737280028
  H   1.94054335429880     -4.30600350668649      2.57710862899641
  H   5.32572861371419      1.95304282957605     -0.56741300219738
