25
Coordinates from ORCA-job 3282optt
  Br  2.85922718800479     -1.03732904544507      9.75244826977253
  C   2.13912777194272     -0.91426971487862      8.02491036846156
  C   0.95461602778924     -0.34422709842020      7.76949755991086
  C   0.07359837881437      0.19221168250838      8.90892701579885
  O   -1.03504484797303      0.83469035206797      8.32252473791253
  C   -1.95421967317456     -0.17228169510265      8.10335822443207
  C   -1.80479981337282     -1.12403093049504      9.21917307172103
  C   -0.56681914862199     -0.96200416092452      9.67155427043509
  N   -2.52808398111727     -0.34276359278407      7.00375293859734
  C   -1.99298981147341      0.40485856214926      5.87798493498183
  C   -0.46318355195499      0.66952158671172      5.87771784714418
  N   0.40845921141698     -0.38193878800778      6.47468560330073
  C   0.86907881101630     -1.31496530306154      5.58425129802587
  N   1.93274307841269     -2.01435356240749      5.64909945914938
  S   3.10403528061890     -1.57791172351251      6.71061710170686
  O   3.78023699452083     -2.74625084164462      7.15969944962493
  O   3.83730314235156     -0.50223612394664      6.11962371332241
  H   0.62920679004509      0.89019405364004      9.53150864233766
  H   -2.52098883096804     -1.89274058180139      9.45869704482949
  H   -0.03054132374821     -1.56550675740244     10.38656398851887
  H   -2.48189578805258      1.37831203175734      5.77939497388645
  H   -2.25586493804166     -0.16611569741681      4.98679983557094
  H   -0.21620849122425      1.60532067625637      6.36272443667926
  H   -0.14832577852910      0.76060611319774      4.83842265682173
  H   0.20933330331843     -1.46078944103745      4.73106255705749
