25
Coordinates from ORCA-job 3288optt
  Br  1.09007383371241      0.53590978645449     -0.92976050561468
  C   2.86656266806572      0.22340881927326     -0.37175299777099
  C   3.32248015584988     -1.06578581581359     -0.11361947153309
  C   2.49741233148286     -2.30098668002724     -0.30028821364523
  O   1.71092551257162     -2.56246414193295      0.85784665268040
  C   1.65300381149640     -3.96556447723457      1.09777425869453
  C   2.35859421053755     -4.63564757574185     -0.08954709542656
  C   3.34020683813131     -3.54981585601870     -0.49009469961773
  O   4.41254425786687     -3.61814867665308      0.44855809663123
  C   5.16467131733133     -2.53657635578231      0.76360355093224
  O   6.15878074489926     -2.67530809210967      1.39837704274179
  C   4.63303941958038     -1.18871061687541      0.34071181293444
  N   5.46958019213090     -0.17034238109062      0.49862790409051
  C   5.01822933102301      1.04096699976934      0.21634741686403
  C   3.71914319088060      1.29790495216926     -0.20969068824875
  C   2.34505454391822     -4.28906397067939      2.41415474136893
  O   2.36751427993260     -5.39650851454980      2.86432494683232
  H   1.84461151009398     -2.18081892606564     -1.17103405917334
  H   0.61031895247595     -4.27800110237568      1.18316243492873
  H   1.65776383373950     -4.82478204902231     -0.90220236259194
  H   2.85118925564901     -5.56425629698909      0.19053555942501
  H   3.73496153996139     -3.64940682029911     -1.50177575918569
  H   5.71938605657287      1.85832031990995      0.34169408339347
  H   3.38869023552175      2.30727427287342     -0.40862689355135
  H   2.81826197657455     -3.42759680118866      2.92267424484173
