27
Coordinates from ORCA-job 3290optt
  Br  0.96825033350581      0.22479224604152     -0.13562956063180
  C   2.84923353235024      0.33532128845271     -0.19076846530869
  C   3.51919284766932      1.39066057141395      0.26695816411447
  C   3.09483719246227      2.69537474305163      0.89769708541541
  O   4.17013050909514      2.94378205488419      1.80814130853018
  C   5.35370658285003      2.63148807623513      1.07878044425940
  C   5.67135236375918      3.78351359082476      0.12064274675763
  C   4.43432747103038      4.20721152041291     -0.67339444395902
  C   4.02959123463189      3.47411399909216     -1.97573551549940
  C   2.55453194396704      3.55216120343476     -1.52022435762839
  C   3.03143707764431      3.87179707941178     -0.08507939519365
  C   4.96917049599258      1.37622468553681      0.32416762740229
  N   5.79887227397573      0.53415772181448     -0.15264092819132
  C   5.35076156924584     -0.55896984641850     -0.89446574499554
  N   6.08466739384261     -1.30716186663919     -1.59454366016932
  S   3.62066126171032     -1.06132887938728     -0.86598214219400
  H   2.17343686985088      2.60240198739222      1.47056545307528
  H   6.16430468424685      2.44948910565312      1.78147274192989
  H   6.48479092363464      3.49592380746731     -0.54993201094571
  H   6.02231329930775      4.61417795706698      0.73502711367105
  H   4.48481234367180      5.27714928776791     -0.87516642374419
  H   4.39884786897171      2.44957557872175     -2.02148866910459
  H   4.28816905456901      3.97228392141868     -2.90846901842632
  H   1.94200640125596      2.66175859882835     -1.65504537324848
  H   2.03781624676028      4.40255151777054     -1.96210116099423
  H   2.53111624155427      4.69608874565553      0.42178107329296
  H   7.05566198244410     -1.00653869590425     -1.50756688821390
