30
Coordinates from ORCA-job 3297optt
  Br  1.49700326687330     -0.88071180895205     -1.41635493538929
  C   3.28186744369390     -0.41131604358104     -1.01928508068258
  C   3.55196408938205      0.72065300512703     -0.33766643764361
  C   2.60456924510408      1.78559768921433      0.14966652016797
  O   1.99783157194853      1.33573252064823      1.33444895797059
  C   0.70067264054687      1.86955929389411      1.55987289165015
  C   0.72224417472284      3.26603630663991      2.15938143836233
  C   1.55444261804815      4.28507422459045      1.37937108009818
  C   3.05712438282883      3.98224018549149      1.42121189046463
  C   3.52842855365449      3.00458182635165      0.34952779454319
  C   4.90462291551597      2.39618417514521      0.64379296831099
  N   4.84541317904922      1.11062785795149     -0.07307315383098
  S   6.06809142681093     -0.00136584330710      0.02136749216308
  O   5.99761158451740     -0.69434191936460      1.26873969840253
  O   7.29229539575201      0.64331190328156     -0.33920602220157
  C   5.48343074637514     -1.05024618396802     -1.27493715017134
  N   4.25530416642689     -1.19087409074325     -1.57131973150010
  H   1.83942133010486      1.98000368095799     -0.60808233205377
  H   0.20900211372416      1.17459313178923      2.24010538891331
  H   0.14420784846761      1.86390419484530      0.61445268485329
  H   -0.31289303047683      3.60985403999698      2.23611155581453
  H   1.11256809200416      3.20535845623300      3.17887187945059
  H   1.20862405720766      4.34534689803216      0.34159862618796
  H   1.38166546206126      5.27043691714025      1.81521743065546
  H   3.30071910778565      3.57457789889261      2.40557012283687
  H   3.62842693425558      4.90650021408702      1.31566131103166
  H   3.58182342626381      3.51793967222878     -0.61476811741407
  H   5.03954807004999      2.21194623683979      1.71221796955485
  H   5.73855264374240      2.98701554574769      0.27067273704898
  H   6.26141654355904     -1.61321998521023     -1.78116747759385
