26
Coordinates from ORCA-job 3300optt
  Br  1.52811223282726     -0.49702894154960     -0.35683567591728
  C   3.34089362962787     -0.06000822550602     -0.70485642983473
  C   3.84375061979263      1.15192086114925     -0.27127256985239
  C   3.24322426184335      2.29986895711093      0.51216062811420
  O   3.40109749050420      2.12525608068074      1.90338414818268
  C   4.70412994930780      1.71689305761964      2.29397830895085
  C   5.82625140732931      2.52985400849962      1.63817660216279
  C   5.53240377560435      2.74360246526670      0.13318677007111
  C   6.62420411384436      3.44759636519612     -0.52978427105188
  N   7.49528029347179      3.97960115035510     -1.05132642399882
  C   4.14903326883695      3.46176904720503      0.03007884805414
  C   4.03500605723352      4.68896841579258      0.79819121117306
  C   3.95592885462242      5.70699230902945      1.42236917977807
  C   5.18696931160028      1.41162677002163     -0.51010136747375
  C   5.97497355674615      0.49911774130617     -1.17993121462771
  C   5.34433274964996     -0.67114111870439     -1.59345781899918
  N   4.06238836077023     -0.94613342371851     -1.35993247352221
  H   2.18545735207574      2.47092969311382      0.33140534920371
  H   4.83551095973563      0.65461622349217      2.06498502845834
  H   4.74040807537757      1.83422898017207      3.37491540229948
  H   6.77225447182153      2.00078063859649      1.76071930808498
  H   5.91795001453245      3.51269277925964      2.10071122834891
  H   3.93947069105801      3.66389065273448     -1.02240678116525
  H   3.87663797371875      6.61269845301410      1.97537666521127
  H   7.02087212583575      0.68064117119502     -1.38996010625533
  H   5.89445840223202     -1.42823411133230     -2.13977354539508
