26
Coordinates from ORCA-job 3314optt
  Br  1.13668301246313      0.76867996664660     -0.10943610098319
  C   2.97624741613577      0.39502940394594     -0.19154458427780
  C   3.46837543205516     -0.87240973451640     -0.24463013047618
  C   2.48455361028027     -2.03472397509088     -0.23376711467142
  O   1.88777665468268     -2.13250682873934      1.04831561420167
  C   2.06224549153346     -3.46122932568730      1.51599014668843
  C   3.30481527205289     -3.89405488509676      0.76026285097605
  C   4.57258879222304     -3.33648096597248      1.39438146598328
  O   5.60822709308199     -3.32322693546345      0.43741837894306
  C   5.62381190807708     -2.37602419444538     -0.54160285760308
  N   6.39187585987347     -2.50136627894241     -1.53246283438633
  C   4.88580219648264     -1.08397660135062     -0.36375610037147
  C   5.67936943187522      0.01698878567862     -0.42747828659367
  N   5.17259661806528      1.26473930090418     -0.34315623937498
  C   3.82410743610846      1.58234390739521     -0.21494483004748
  O   3.46346845350069      2.73528946674055     -0.14372998900664
  O   3.09789174937902     -3.26604494757769     -0.49603509030390
  H   1.72149094280648     -1.86989789280165     -0.99761230509608
  H   1.20032802536357     -4.08145339367741      1.25950768156446
  H   2.18993892340522     -3.42963582878892      2.59788000843405
  H   3.38519086013383     -4.96407359147342      0.58072600833859
  H   4.91084672335778     -3.97637113020298      2.20824500936960
  H   4.39347255389523     -2.33357794286932      1.79277915226973
  H   6.89455064510569     -3.38717376866315     -1.47685512633067
  H   6.74770758127939     -0.06707288468484     -0.56460625928513
  H   5.78703731678253      2.06623027473333     -0.38588846796090
