27
Coordinates from ORCA-job 3315optt
  Br  1.26083858739353      0.27608686322676      0.29498908481468
  C   3.13594324514970      0.20519081027071      0.17449050568753
  C   3.87576179855645      1.32517151527991      0.24127006093640
  C   3.33541826354820      2.72369021091631      0.38620578597005
  O   4.24741728557014      3.50885831386111      1.14132938414026
  C   5.31430846417101      3.66617765769724      0.24471728404257
  C   6.13898150881691      2.39130712158118      0.25040301693543
  N   5.25448918699128      1.23338170988778      0.09603559433012
  C   5.79790803699915     -0.00320890951523     -0.09299552102450
  N   5.15946590539498     -1.10448089715313     -0.15958984249695
  C   3.75778135322418     -1.11314242902675     -0.02126469439146
  N   3.06377659719508     -2.17375278255851     -0.06697323210190
  O   4.73663552403208      3.87420255657922     -1.02900299032055
  C   3.36051489484183      3.48384474079569     -0.94973389994695
  C   2.95873829168702      2.71077564141951     -2.19253833547133
  C   3.04671685721009      3.59710018935343     -3.41109633885496
  O   2.11109268807744      3.85855448042898     -4.11267106793438
  H   2.36825033570028      2.72548412415647      0.87619311279924
  H   5.90962119640126      4.53046461297799      0.53475685109865
  H   6.67842423259233      2.32390222987687      1.19786935995027
  H   6.85183466508553      2.40981921593255     -0.57411568411534
  H   6.88054243654179     -0.00686313215664     -0.19651646064541
  H   3.68236008836817     -2.97072742852834     -0.20910204394541
  H   2.74466238036334      4.38124598555896     -0.84322820742127
  H   1.93977548046937      2.33486310444504     -2.09342222878339
  H   3.64306723515911      1.86694510119721     -2.32292885178286
  H   4.04767346045964      4.01810939349562     -3.62008064146853
