29
Coordinates from ORCA-job 3318optt
  Br  1.23718276087986      0.16028644159208      0.21221392538701
  C   3.12119505332591     -0.07554362622644      0.06881756838103
  C   3.70149668460938     -1.32522470780676      0.23827913705532
  C   2.95021614688721     -2.61028322762773      0.51561925711880
  O   3.15625932667385     -3.58470780960504     -0.48396776792740
  C   4.33934177318042     -4.35897694401600     -0.48468350337872
  C   5.59973622080382     -3.53390658230248     -0.65446673540607
  N   5.81335112162996     -2.53853616318838      0.39079430324095
  C   5.81370225489547     -3.03891083387315      1.77021066912571
  C   4.57309925779825     -2.68981705428876      2.59188036479543
  C   3.19487384528163     -3.05107844416155      1.99377369834344
  C   2.82576186082483     -4.44843714197569      2.21620825932095
  C   2.51759253031534     -5.58465246667866      2.43771027361340
  C   5.10423207347283     -1.33007410240234      0.18898596666151
  N   5.81305159199725     -0.23128542607303     -0.03211533596066
  C   5.12660820700645      0.88865905688747     -0.21803262809724
  N   3.80771284340937      1.02184966267662     -0.17195908013921
  H   1.88612953104813     -2.40537051737388      0.43182851602280
  H   4.23150231249599     -5.04563159665217     -1.32521634072817
  H   4.39442041921468     -4.96294341680021      0.42466926047520
  H   5.58152697259077     -3.01031939664491     -1.61209415734815
  H   6.46239312194461     -4.20631424888416     -0.66845707544995
  H   6.68201380125364     -2.63203533470982      2.29524133026990
  H   5.94897286017934     -4.12073396701472      1.72694429793373
  H   4.57465892504725     -1.61275479272503      2.77375116970011
  H   4.66040146014950     -3.16533683486404      3.56985945523806
  H   2.47286868493394     -2.45769255854555      2.56463360143048
  H   2.24173403611347     -6.59404371320484      2.62935264319428
  H   5.69596432203676      1.78781574648923     -0.42278107287253
