20
Coordinates from ORCA-job 3319optt
  Br  1.57361211281015      0.03294329737598     -1.61913228825211
  C   3.21485206246802     -0.21272790825671     -0.77916959025756
  C   3.54523189757985     -1.27187041739191     -0.05625667485610
  C   2.86292273999054     -2.53740626288057      0.35833249005169
  O   3.48254074797523     -3.64053539001224     -0.31998357584503
  C   4.84693585151448     -3.73737060839305      0.13255624280217
  C   5.75571977085967     -3.53153601008787     -1.00185166736631
  N   6.45312930253081     -3.34707908823830     -1.89032970907324
  C   4.96289667027910     -2.63263302249604      1.20484235712876
  N   4.83617845519358     -1.35734310654628      0.50929261041963
  C   5.81617349048849     -0.42081761971597      0.36163176453385
  O   6.91976520960602     -0.50800150750192      0.81797052655882
  C   5.36372737972446      0.81344732648400     -0.44401754328907
  O   6.05966335230064      1.74820086389281     -0.61898474688965
  O   4.08805610262850      0.80900840485942     -0.96920845357514
  C   3.51263071321360     -2.71975285160565      1.74501962595659
  O   3.08070456630899     -2.89783046123112      2.83054763663368
  H   1.78624472642598     -2.59216771043074      0.26607974212188
  H   5.01426734574741     -4.72657208831936      0.56241861458891
  H   5.80174750235441     -2.67395583950446      1.88824263860821
