24
Coordinates from ORCA-job 3320optt
  Br  1.06500987545413     -0.24205644659657      0.06296037035862
  C   2.93260426396863     -0.04759277691810     -0.05580755807257
  C   3.59465634454484      1.09270208767832      0.23257713073160
  C   3.00232679135446      2.38612648928949      0.70327073165746
  O   3.64873766571869      2.88761028306125      1.81994296884067
  C   5.07710791950029      2.83010455160680      1.82105050976112
  C   5.63564892988723      2.40345289556513      0.46892950644048
  N   5.36572595002387      3.39645349670403     -0.56841133386493
  C   4.19143476711610      3.75067989743741     -0.87053405067347
  O   3.00073209066812      3.35771993364714     -0.35848564486155
  C   3.99307105469143      4.73016319399069     -1.91339271181397
  C   3.82744109981580      5.54110452396783     -2.77657942814041
  C   5.02125056463050      1.07770574835370      0.10345956931156
  C   5.70249823393490     -0.01910452067622     -0.29080392125505
  C   5.00180814940998     -1.24894798240961     -0.60729313210412
  O   5.48968010528582     -2.29741912298943     -0.96739093171780
  N   3.60464553113325     -1.15364558766340     -0.45714214423217
  H   1.95194692049453      2.28951069984010      0.95986241491152
  H   5.39725097669519      2.12345723591548      2.59057220011695
  H   5.43911613391290      3.82656146914527      2.07416533753733
  H   6.71736694179369      2.30727105428616      0.55565258412651
  H   3.68886607246959      6.26606675766475     -3.54337603754246
  H   6.77905707226633     -0.02967455860763     -0.38868399647917
  H   3.09701654522965     -2.00124932229262     -0.67254243303616
