25
Coordinates from ORCA-job 3324optt
  Br  1.33994128027720      0.19685849980871      0.93186380518414
  C   3.13426099654249      0.21996937137229      0.32408492567385
  C   3.77463517305532      1.42063415412600      0.16043375248907
  C   3.43152573379387      2.87657911096622      0.41263845183499
  O   4.09165890950846      3.24693309391722      1.62100058335434
  C   5.46898729413093      3.35562314889995      1.26577931141758
  C   5.44370473738163      2.94168500899678     -0.23543439274629
  O   4.17546471001411      3.52463493704686     -0.59217934136285
  C   6.55648346392937      3.38460612485426     -1.04539812664157
  C   7.51141919068464      3.71670243373029     -1.68465987971833
  C   5.10093115533776      1.46179045689409     -0.25604351202028
  C   5.81247474745915      0.31747620042978     -0.51616347218575
  C   5.14295733155134     -0.89953394890081     -0.37926212635159
  C   3.81721800491839     -0.97081332487494      0.03343860662772
  C   3.09365730863293     -2.29169041001053      0.17929957612789
  C   3.91122462666482     -3.44914817881525     -0.16960586801790
  N   4.56287293093404     -4.34982364009677     -0.44534265895351
  H   2.39358430824377      3.18719910589922      0.42946909827057
  H   6.08061385792573      2.69000349602608      1.87318013720798
  H   5.79766676037143      4.38954624946379      1.36644940835617
  H   8.35403062202306      4.01794813869175     -2.26111090552101
  H   6.84653243112122      0.34994516616373     -0.83389282443168
  H   5.66637593303193     -1.81989494902121     -0.60571083347024
  H   2.19916912790797     -2.30143588159028     -0.44832128333734
  H   2.74460936455837     -2.41579436397721      1.20748756821403
