25
Coordinates from ORCA-job 3325optt
  Br  0.91489648183808      0.12196117403651     -0.55014731891150
  C   2.79877060333682      0.15509085769624     -0.75051070057261
  C   3.58710111736946     -0.90213409449939     -0.31403334175619
  C   2.95317852281928     -2.12848534508818      0.31130939821473
  O   2.76005374402020     -1.90221491619802      1.69876948926866
  C   3.44298748263500     -2.91275039907386      2.42123885889934
  C   4.48742264294140     -3.37096963131270      1.40435022206518
  O   3.75547847569776     -3.27771045739729      0.19168141982733
  C   4.99373207237335     -4.72122334137792      1.59185471028133
  C   5.43955464107396     -5.81746044187214      1.76312085129767
  C   5.67032062017742     -2.36983359187816      1.36240417357297
  O   6.26419449029520     -2.08056121092715      2.35896821753805
  C   5.97642905283563     -1.80549886039407     -0.00768187788363
  C   4.97591262869086     -0.75833189339797     -0.46101491437713
  N   5.53373289103944      0.31764461373165     -1.00879802596068
  C   4.74887762025062      1.29678289571838     -1.44077246514043
  C   3.36999190014256      1.27332005627672     -1.33066417619495
  H   2.00155770482653     -2.34976137364808     -0.17164840185036
  H   2.77521992155180     -3.73823555633983      2.67527959012035
  H   3.89295138182107     -2.48300938321070      3.31303690556078
  H   5.83356104064299     -6.79501173462973      1.91079261521229
  H   5.98330157773321     -2.62990677729672     -0.72524197457150
  H   6.95351126209122     -1.33189474417515      0.02236576411918
  H   5.24558765411916      2.14922313056550     -1.89011436239363
  H   2.76367446967693      2.09897102469205     -1.67354465636525
