23
Coordinates from ORCA-job 3327optt
  Br  1.15421751139321      0.52520622707769      0.03838095395528
  C   3.02846672176699      0.33410405105249     -0.00568744242625
  C   3.58391473638665     -0.93023185523192     -0.15686750689336
  C   2.70144603707504     -2.15492390860309     -0.49527059174324
  O   2.02731128570784     -2.82841434596428      0.58659506078111
  C   2.82663600617984     -3.99769141066051      0.93555628278281
  C   4.12426659195668     -3.42631242233591      0.38299353033612
  O   3.63632044137139     -3.07236434533956     -0.91701845496364
  C   5.59636946907218     -3.41306587690570      0.16476594986174
  N   6.55939744856340     -4.19506527982577      0.25713175269823
  O   5.86175091606038     -2.09329600871958     -0.21666395731501
  C   5.00634185903604     -1.00774274118470     -0.13737344349302
  C   5.72281817180641      0.18587525329151     -0.01533120686423
  N   5.16872040557099      1.37518558497800      0.09703446659706
  C   3.84282597200520      1.45869256734978      0.11608376894593
  C   3.27710899460939      2.77697743471647      0.26605855095909
  N   2.82259998036572      3.82244077678469      0.38482194755961
  H   1.97283340408315     -1.91391406877208     -1.26624662306220
  H   2.45812040335587     -4.88120013287990      0.41929168606901
  H   2.80034803749906     -4.11096854597403      2.01534583948866
  H   4.11312447983668     -2.55196353566745      1.04635378780740
  H   6.24520336726995     -5.12713306059154      0.51115607692530
  H   6.80485775902791      0.13180564340541     -0.01211042800639
