25
Coordinates from ORCA-job 3337optt
  Br  1.06324981046315     -0.09612802159505     -0.30832841166429
  C   2.91762554032293      0.20217616555934     -0.52096726054245
  C   3.52088960953817      1.29615852397551      0.04916258000838
  C   3.03307683116157      2.41964335387572      0.93050784937701
  O   3.61642520095299      2.22252874513113      2.22827922388390
  C   4.95974527950133      2.42980419383051      2.10558500293298
  N   5.72540086012076      2.30299116626186      3.08708407714872
  C   5.20948874199398      2.78530791719462      0.64084471996028
  C   4.88988600397971      1.51624254416989     -0.12270660581998
  C   5.67182329474302      0.65110335338023     -0.85362657120018
  C   5.04634622009352     -0.45422967828027     -1.43392907177026
  C   3.68802010618334     -0.68188335765842     -1.27529550836675
  C   3.89276451159006      3.60840599605881      0.38174435874625
  C   3.64778094161239      3.90888744520696     -1.02593287952477
  C   3.43913842118201      4.15253015470330     -2.17830453018277
  C   3.79907334862166      4.81154886486985      1.20443824452502
  C   3.74676431883442      5.78428792867649      1.89813571540845
  H   1.96637971477903      2.58042809473704      1.03120576562209
  H   6.68488357698260      2.50704217250291      2.82307547562724
  H   6.15223087622776      3.28182312970898      0.43826510332320
  H   6.73194995495354      0.82063528264214     -0.98777092728447
  H   5.62822016914386     -1.14876381709220     -2.02551912132978
  H   3.21893729306119     -1.54002081377861     -1.73607157940653
  H   3.24829321616519      4.37160050774261     -3.20184361992567
  H   3.69660615779177      6.64988014817663      2.51496797045439
