25
Coordinates from ORCA-job 3338optt
  Br  1.43205456670914     -0.39086285333541     -1.30964472775538
  C   3.20100165175597     -0.02067636263756     -0.83000398145002
  C   3.56765646208651      1.17256946282021     -0.30844974860002
  C   2.75519544414142      2.38680285413025      0.05532266403168
  O   2.20109242011304      2.13194501189239      1.34391801967681
  C   2.27577382866418      3.08769014149234      2.30123215200591
  N   2.79036249339843      4.22961520117605      2.24008401485509
  C   3.38693484712223      4.66133028579458      0.99395017505800
  C   3.82546873414956      3.50708907116583      0.08673627770660
  C   5.06623758596101      2.74994922568364      0.59852148687224
  N   4.85618785813782      1.41898309834390      0.03859000016771
  N   5.84647993745215      0.55133643947030     -0.07838834723560
  C   5.55098595573284     -0.60507237234847     -0.57634647369025
  C   4.21858054396597     -1.04548065269112     -1.02338889812084
  O   4.02556583370450     -2.14842392207018     -1.49580368666383
  C   4.05514270366854      3.97803388624661     -1.27709414611440
  C   4.22986885324423      4.37905976075433     -2.39125287338168
  H   1.94847750449807      2.58995857535770     -0.64659318629293
  H   1.81050530923922      2.72638441834349      3.21251283110798
  H   4.24817535580984      5.29279653593270      1.21810100867999
  H   2.67130593865521      5.28631427768713      0.45554200876281
  H   5.07873747788145      2.70689429700169      1.69039103907612
  H   6.00235156357111      3.16263440305100      0.23176125810581
  H   6.36470073134894     -1.31199312457134     -0.67840512521898
  H   4.39015639898857      4.73312234130992     -3.38229174158281
