28
Coordinates from ORCA-job 3347optt
  Br  1.31685086896460      0.63733406647435      1.74811952628661
  C   2.93486691979540      0.32320947505549      0.85394028718108
  C   3.36918849506525     -0.88625055359738      0.48386233883361
  C   2.83083533260532     -2.29263253634507      0.65156943843363
  O   1.51197417789094     -2.47591253263831      1.09194658710846
  C   0.39130458785849     -2.49885316309090      0.30767891126030
  N   -0.73283139861847     -2.25064858929799      0.81062703383595
  C   0.53520829623113     -2.89450430258529     -1.13012491386900
  C   1.54669143757946     -2.04842181867627     -1.89003270366197
  O   2.85931931143750     -2.56851590333837     -1.84553186495659
  C   3.38565207158547     -2.99740510619126     -0.60823290664852
  C   4.83411699069269     -2.48580250480945     -0.59641166798919
  C   4.62447838584319     -1.03756471437775     -0.22725099170269
  C   5.32814294299468      0.05064045510332     -0.51937120654196
  O   4.92017536082423      1.28403848393788     -0.14225030749041
  C   3.74836942272500      1.51273036400823      0.55291635833782
  N   3.42568603423926      2.68084144510234      0.89063744414971
  H   3.42165735258873     -2.72451047313142      1.46806570297113
  H   -0.63264089678790     -1.98997087350409      1.79185152399604
  H   -0.45298089451136     -2.79002957650965     -1.57174373466652
  H   0.82464781748622     -3.94669999124733     -1.20091941852448
  H   1.53254878768991     -1.01553841941419     -1.52102813821475
  H   1.29039030570056     -2.02457420058247     -2.94766712652342
  H   3.30393108518837     -4.08320114590578     -0.51469658885223
  H   5.29531933087051     -2.62053345329195     -1.57217905369194
  H   5.42667045010048     -3.01368302671670      0.15469610013768
  H   6.25309922390967      0.08240593557755     -1.07746028170608
  H   4.12532820005062      3.35505265999246      0.58798965250774
