26
Coordinates from ORCA-job 3353optt
  Br  1.08043201769260      0.01240770343692      0.41931728432984
  C   2.94573719532243     -0.11819415703524      0.23374368634462
  C   3.64355622127551     -1.27075190383976      0.34828527883389
  C   2.92202411333369     -2.56737053948511      0.60013033547253
  O   2.98717992946117     -2.93722341648736      1.98743133770540
  C   2.61395632501295     -4.24862172608440      2.05720787322099
  N   2.33251011444774     -4.90104795672727      3.08248728567766
  O   2.58832702544470     -4.78199517394103      0.81101156018525
  C   3.30391432666115     -3.89595202202768     -0.05843349082835
  C   4.76021792791026     -4.36105985501142     -0.02722716053267
  O   5.67853869540307     -3.42759301736351     -0.52434177037967
  C   5.97724136105776     -2.40178403960169      0.39938634785773
  C   5.09390283971693     -1.20236118006029      0.23522114136916
  C   5.65486442130428     -0.01988008862283     -0.02592915203022
  O   4.96819845733227      1.12677115961987     -0.16722656346469
  C   3.60030955885290      1.17322653494071     -0.03388161911374
  N   2.97952714116232      2.26066132810001     -0.14731826058265
  H   1.87152295791736     -2.41459311511197      0.35458339315569
  H   2.35114595412642     -4.30248068349079      3.90247030300018
  H   2.87786991469035     -3.97734175674827     -1.05618567576502
  H   4.83954478540161     -5.26036151029250     -0.63721113232859
  H   5.01183147687145     -4.63642655549705      1.00423110848781
  H   7.01234198946862     -2.10504079280126      0.22787018093124
  H   5.90361522368772     -2.79363559313412      1.42039815701034
  H   6.71809494301972      0.13163302936601     -0.14852877651689
  H   3.61959508342503      3.02901532790003     -0.33749167203987
