27
Coordinates from ORCA-job 3355optt
  Br  0.95395788883322      1.01405954943425      1.51792638484982
  C   2.62083381534889      0.76317331889506      0.67447097946653
  C   3.71160566529563      1.43120328602812      1.03701777241396
  C   3.99485486990723      2.49174992367769      2.07450974150216
  O   5.32568875704841      2.12993136806259      2.47148517121010
  C   5.88573153188827      2.19034844620731      1.18082085413405
  O   5.57120771006570      3.49529694338092      0.72214078028021
  C   4.30936533443969      3.81830339654117      1.33334630520024
  C   3.31066877093652      4.27386250649713      0.29279643083296
  C   1.98865846931502      4.70669159476338      0.93787766869728
  C   0.95360097570702      4.96435423692788     -0.05787657941229
  C   0.11681798272327      5.13816628718014     -0.89704608242273
  C   5.00282980629907      1.22306624182705      0.40957875054899
  C   5.27103924995185      0.40002732866768     -0.60520475729723
  C   4.25375966826898     -0.43542421731300     -1.24222963746534
  N   4.40343238074884     -1.21495441145474     -2.22932549158944
  S   2.58551192516029     -0.42259870327188     -0.59412223805840
  H   3.32720681504123      2.55032554360908      2.92702469275744
  H   6.95795896006691      2.02629852516615      1.18416989951893
  H   4.48027689612400      4.60126762310689      2.07824952274219
  H   3.12989406104467      3.46966548620526     -0.42279184272775
  H   3.73908552720817      5.10774619862093     -0.26422736868787
  H   2.14431552471686      5.60174925244051      1.54528333825969
  H   1.62551180746440      3.92609200676595      1.61236740389560
  H   -0.62987999453483      5.29283739403324     -1.63874392839372
  H   6.27305328738493      0.31608936555833     -1.01261415433200
  H   5.36601231354568     -1.20832849155712     -2.56288361592342
