26
Coordinates from ORCA-job 3356optt
  Br  1.26629104425630     -0.01691968887664      0.72832280147884
  C   3.12421520183690     -0.15853723059304      0.43720786146015
  C   3.75670208617238     -1.32343919412284      0.11077808889581
  C   2.92924943170322     -2.58252138728148      0.13977105918442
  O   2.44614734837880     -2.78273881926070      1.46950094001020
  C   1.87602194386016     -4.05641450763716      1.43590526162305
  O   2.68538175607769     -4.82977395129659      0.56526185788954
  C   3.56613199200702     -3.95166828171312     -0.11621815305000
  C   4.96071965192081     -4.06049707002756      0.47809032138633
  N   5.94977144366562     -3.52667434181313     -0.42553149594486
  C   6.04403516230096     -2.25096726994631     -0.86166316676826
  O   6.85464180446669     -1.92777884890133     -1.70293500129044
  C   5.15362859856802     -1.18121094353623     -0.23875312414723
  C   5.79097040110390      0.01306546308404     -0.13953064892069
  C   5.13845717861538      1.21312878202023      0.32590790701339
  O   5.63640904064396      2.30416233919199      0.49705468150755
  N   3.76926882287359      1.02334828224938      0.54470034705484
  H   2.06574528875578     -2.47086771478437     -0.52929515522943
  H   0.85579696999831     -4.01795774605305      1.03509867098881
  H   1.88759759310059     -4.47808794819042      2.43949376318619
  H   3.58497218602118     -4.21578492837616     -1.17487703577792
  H   5.18713220994717     -5.11065463766946      0.64921378628138
  H   4.98966026422517     -3.55250380465592      1.44570239999759
  H   6.56526660499416     -4.16189692374184     -0.91062490722931
  H   6.82045490191703      0.10397198117715     -0.45187782533819
  H   3.25333107258914      1.85321839075458      0.80629676573824
