26
Coordinates from ORCA-job 3365optt
  Br  1.10386221618444      0.09966993228141     -0.18604271801750
  C   2.98481338509385     -0.02297541962763     -0.07693045769813
  C   3.62507706565450     -1.25848280498555     -0.11460319590619
  C   2.87105071271561     -2.55303396830533     -0.23090710737035
  O   2.14214598737538     -2.79882047582062      0.97972270226663
  C   2.12730333424644     -4.12118579102432      1.27526565638591
  O   1.56252936803754     -4.56030154691858      2.22459866951276
  C   2.89717279428642     -4.87271204062137      0.20521044752186
  C   3.75233350723115     -3.79221425025430     -0.43245080457732
  N   4.96997087751595     -3.62760207910182      0.34562279221261
  C   5.80210172412595     -2.53332308408001     -0.13157600038793
  C   6.31222188822469     -2.73514217188447     -1.50243397936684
  C   6.69566777436976     -2.93115232303747     -2.62016866063791
  C   5.01876219259495     -1.23564023968344     -0.06528421993724
  N   5.74429880508255     -0.12900132366031      0.02085096805074
  C   5.10314033477430      1.03104327678741      0.07032912817519
  C   3.72190488734305      1.14270073712781      0.02404157175795
  H   2.14450849463897     -2.47512835746837     -1.04504127167578
  H   2.17586588063911     -5.28943428633151     -0.50070575529624
  H   3.46188669258419     -5.69066664233283      0.64690147972060
  H   3.94599295323080     -3.95851423699004     -1.49779072442722
  H   5.50111818397566     -4.49042788472614      0.35322826786029
  H   6.65221180165912     -2.42153835798306      0.54231151327131
  H   7.04670569194423     -3.09023009467252     -3.61211658864058
  H   5.71793252578943      1.92070282788539      0.14651876561863
  H   3.23742092068190      2.10741060542772      0.06244952158477
