26
Coordinates from ORCA-job 3367optt
  Br  6.03303904026686     -4.89423642382406      2.62156055567814
  C   6.04175110005903     -3.14367616521555      1.98450706161799
  C   4.97092735394678     -2.43304033006749      1.64572043844365
  C   3.51587951810144     -2.79811415365513      1.77780022991227
  O   3.23297426085471     -3.11298832204483      3.12486256398806
  C   2.11353657144610     -3.94037088251268      3.29416335420528
  O   1.02457138582494     -3.53596337494967      2.52258535368230
  C   0.71763290391136     -2.15167503459457      2.59871178560464
  C   1.32066803026448     -1.42716608342693      1.39475843070326
  C   2.81004689914708     -1.51493340034660      1.35471441746335
  C   3.68820623570829     -0.57377398917740      0.99419624028049
  C   5.05647960954450     -1.08254725228324      1.10069657798236
  N   6.11716106787569     -0.49905248591375      0.68068545362621
  N   7.26499285023169     -1.22811538569670      0.79670022182325
  S   7.57770175354123     -2.28269096279160      2.04228784181927
  O   7.62624598772022     -1.62253221707340      3.30589844322718
  O   8.67893962238782     -3.08277918479352      1.61937769923082
  H   3.25411224267449     -3.64002113967613      1.12395293979277
  H   1.89354392980978     -3.89908761024710      4.36415215424407
  H   2.33351247538181     -4.96478781027187      2.98163961208210
  H   1.08356617974701     -1.72840554400075      3.53821866170655
  H   -0.36806151950997     -2.06326687098582      2.57468228268313
  H   1.00377635897115     -0.38296028127151      1.38385181658948
  H   0.91053706165869     -1.90401831291601      0.49840370504607
  H   3.45783187568722      0.42636494997963      0.65524083142942
  H   8.09042720474756     -0.75916173224331      0.44563132713788
