26
Coordinates from ORCA-job 3368optt
  Br  1.05443518032757      0.29051099845607     -0.50024463131736
  C   2.90349193076821      0.05465893313628     -0.21159094234354
  C   3.43173450356276     -1.20394902868544      0.07308968805977
  C   2.58529669279361     -2.44900286684381      0.12282845991681
  O   1.80286376456158     -2.37259724666948      1.32311142611344
  C   1.21227374237346     -3.45953444781733      1.87957553856172
  O   0.26361448114091     -3.30654131876022      2.58493419930873
  C   1.87895395239865     -4.79909556907462      1.66308826764987
  C   2.61061504359237     -4.92898097851149      0.33248518785987
  C   3.45325473451267     -3.69360587373065      0.04959393149249
  C   4.62642599951269     -3.51823446173118      0.99698450839336
  O   5.44633113683084     -2.43582542941100      0.57493078362961
  C   4.80674885456051     -1.29038325536492      0.27684055415056
  C   5.56918396610441     -0.12041469957693      0.13574326234709
  Br  7.44566775978169     -0.23117073594954      0.34889921366258
  N   5.05293648200282      1.04585625124767     -0.13771651511108
  C   3.73598049108515      1.15334586680915     -0.30199128060255
  H   1.88833255316527     -2.43114698813727     -0.72030339640609
  H   1.11593601181122     -5.56343731131138      1.79140558929424
  H   2.57743544873583     -4.91086184421634      2.49812319863192
  H   1.88328519784490     -5.04694641785601     -0.47409124873878
  H   3.23307557633129     -5.82529977354923      0.33096776231524
  H   3.85630619711658     -3.75022959501017     -0.96541560594170
  H   5.27379787881852     -4.39319341628171      1.00441405373156
  H   4.28466028484429     -3.31748323967486      2.01779651931592
  H   3.34036213542215      2.13756244851445     -0.51545852397366
