28
Coordinates from ORCA-job 3371optt
  Br  1.58871771047664     -0.26360112175604     -2.28165510013625
  C   3.17731423100760     -0.32330685647257     -1.30370607181047
  C   3.37887465104230      0.42431445431719     -0.21316314090919
  C   2.48118718197283      1.41239373669682      0.47018086763750
  O   1.60655842849364      0.66972292889701      1.30849816146816
  C   0.64878860187225      1.31938384612782      2.02036064255436
  O   -0.02001566623269      0.69599611640400      2.78484958553092
  C   0.45510517060317      2.79674523335965      1.73746827836334
  C   1.67546180389073      3.65766601696547      2.14103378752710
  N   2.83114394945742      2.83095457968478      2.45347880644621
  C   3.47836603746928      2.25989532384055      1.29835847952497
  C   4.61762577536027      1.29455077413588      1.66407108863827
  C   4.63005997415334      0.34745541939500      0.49735575084354
  N   5.59271956827384     -0.42117191667101      0.14658264454532
  N   5.36587134271977     -1.18064833012188     -0.94048177567142
  C   4.23740617054865     -1.23505686541019     -1.75578811191200
  N   4.10419381967446     -1.97266550604802     -2.78400167649581
  H   1.91025470390661      2.00603987174070     -0.24535984454269
  H   -0.42686920123351      3.09419099532796      2.29778367725404
  H   0.22287158625133      2.91692667228118      0.67782356832478
  H   1.42493162840329      4.21704347549862      3.04021813990764
  H   1.88580985464859      4.38946571734730      1.34880171237842
  H   3.49467227566984      3.32810361029943      3.03224346360479
  H   3.86681596313613      3.02517105752407      0.60626655024610
  H   4.35193246543518      0.76203541940356      2.58058255304661
  H   5.57597637250210      1.79002334494276      1.81060494328333
  H   6.14125943562801     -1.77621741874924     -1.18499210630561
  H   4.92496616486891     -2.54741057896083     -2.96141487334196
