23
Coordinates from ORCA-job 3378optt
  Br  1.29164023304437      0.38276731460269      1.58990236571555
  C   2.87217346144609      0.10212962881605      0.65160178622257
  C   3.39068729262527     -1.10111207416035      0.42340959652707
  C   2.94988609158898     -2.50138550435476      0.76634181281077
  O   1.55858617891494     -2.72598370635521      0.59590485868062
  C   1.04835864673086     -2.50593623977410     -0.64514294482880
  O   -0.10302926243279     -2.29565740604182     -0.82052913513762
  C   2.07395461670297     -2.72485029974515     -1.77923459078597
  O   2.01684576517842     -2.12493267866927     -2.80851021745070
  C   3.08028944240774     -3.79026867778337     -1.42202680472964
  C   3.85055688719614     -3.38460006787385     -0.15094121868181
  N   4.98657369104136     -2.51309450750619     -0.41756158893707
  C   4.62832186562270     -1.18559475822487     -0.32648151477444
  N   5.28861845957493     -0.21848914847673     -0.82458519824217
  O   4.75394313363091      1.04551827072777     -0.56610361211878
  C   3.60836508116887      1.28083878651686      0.14620899498317
  N   3.21045309957891      2.45437207344889      0.35947863605153
  H   3.14191565046190     -2.71289895315919      1.81775514797051
  H   3.75412051136281     -3.96657230913769     -2.25877945493995
  H   2.51946544061828     -4.70727875585473     -1.21903292837651
  H   4.18566733838193     -4.27613140865407      0.37532420395854
  H   5.66983114575559     -2.77789335565189     -1.11133430577735
  H   3.84377522939877      3.13605377731102     -0.05566388813950
