22
Coordinates from ORCA-job 3379optt
  Br  2.07184679338693      0.24948970525644      2.68338189973467
  C   3.24587664480971      0.18790950920665      1.23663568840554
  C   3.41579121681909     -0.90117136782882      0.47546450750381
  C   2.76171982276339     -2.25894173347144      0.48311081809824
  O   1.44769331290787     -2.14788334799700     -0.06620498120120
  C   1.17528174031897     -2.38176253172705     -1.37697008972202
  O   0.24612359430348     -1.87406647093128     -1.90499212497379
  C   2.05489963708992     -3.44748482845826     -2.08405219419557
  O   1.86037380726493     -3.69576210506196     -3.23189637660899
  C   3.08875385471220     -4.12111358761443     -1.21834092732527
  C   3.75153222728516     -3.06204519005495     -0.37353944160004
  O   4.36794676120138     -2.10330208585674     -1.25255834527184
  C   4.33768353140520     -0.89655080392823     -0.61542776215104
  C   5.02646856512808      0.20820939476375     -0.90847179073479
  O   4.84444008869071      1.32069904039489     -0.15875432448647
  C   4.01097362848378      1.41167126189529      0.93134047704711
  O   3.96085042145567      2.43803602908751      1.53488029459278
  H   2.63934906122839     -2.67383312208971      1.48147926096749
  H   3.80265907500598     -4.64894268686754     -1.84773254893679
  H   2.58698207723906     -4.84393330167242     -0.56772976990741
  H   4.52268832472532     -3.48058609555836      0.27801704840775
  H   5.73906581377472      0.33736431851370     -1.70763931764215
