22
Coordinates from ORCA-job 3383optt
  Br  1.21052145386813     -0.30494423848065      0.89549403899256
  C   2.99788573071563     -0.04088561248591      0.40076271709042
  C   3.60214832981569      1.11215915863165      0.05551238387938
  C   3.00374965525991      2.42381655213358     -0.18437967291654
  Br  1.20943775678176      2.65750291720023     -0.72873519998122
  C   3.77972500321952      3.52118517940700     -0.14042358818649
  C   3.43141244559820      4.93014623777407     -0.23181693440496
  C   4.52953369484773      5.65034397785463      0.00632828054227
  C   5.67733501403487      4.75463069374937      0.24957007377930
  N   6.87250361338126      5.02264848025542      0.57160658587516
  N   5.16012903756655      3.45614502361522      0.09011587924406
  C   5.79507747396701      2.22031127716962     -0.05369512719509
  Br  7.65705497301097      2.19265390226360     -0.31459614891601
  C   5.07547809566304      1.08610713496059     -0.09997043499799
  C   5.64118685815862     -0.24077346846016     -0.29280073225583
  C   4.91524280059486     -1.30851698667876      0.00747544502779
  O   3.64150072544380     -1.23327156213125      0.49229334613693
  H   2.42941212790043      5.28151191367473     -0.41485592238335
  H   4.61889944854356      6.72445820957394      0.05520920705185
  H   7.00178859824970      6.02995255142624      0.61584211771227
  H   6.64477837508830     -0.36710124168647     -0.66715654121756
  H   5.24219878829041     -2.33308009976670     -0.07977977287695
