20
Coordinates from ORCA-job 3387optt
  Br  0.98370890450248     -0.04364811035924     -0.45073320683450
  C   2.82567709258929      0.06636358738925     -0.03802335798635
  C   3.57683382145649      1.20696511687097      0.11016783395339
  C   3.05425750145908      2.57639440308432      0.24149690221095
  Br  1.30557714045006      2.90879579370726      0.86668927423150
  C   3.87666475483250      3.64308392123254      0.07455861711797
  Br  3.28207120565098      5.42761549826888      0.16637951138828
  C   5.29496215761522      3.49737618773733     -0.09896215824503
  C   5.85479788601601      2.28210885023800     -0.01018370586794
  C   5.04327681320487      1.10436408386866      0.10664377589806
  C   5.66938057668490     -0.10419965440301      0.14028712294238
  O   6.99532930960279     -0.30508292887401      0.16000993173864
  C   7.19164597571881     -1.71800485327431      0.18670338169087
  N   8.32736865445875     -2.24198141829475      0.21871041630583
  N   5.95900425218547     -2.35298497537726      0.15974481086486
  C   5.08031143946744     -1.40173954162636      0.12901627743516
  S   3.38767072320265     -1.57120101166751     -0.03488388048688
  H   5.89290133788552      4.38724401896757     -0.22932487493368
  H   6.92692638780477      2.15324837728695     -0.05877300737491
  H   9.06063406521186     -1.53871734477529      0.21847633595141
