22
Coordinates from ORCA-job 3389optt
  Br  1.19333763638036      0.36533077601769     -0.58615392585070
  C   2.98542619795765      0.02893065807499     -0.13485754885631
  C   3.57113473822323     -1.16698270796879      0.12783626340045
  C   2.96765236068505     -2.46932588151696      0.36137054055385
  Br  1.21180214385551     -2.59097782572740      1.04096993614096
  C   3.73483459411314     -3.56416320571445      0.22210273032468
  Br  3.11557674686077     -5.29168346985504      0.61629227599100
  C   5.15150753421179     -3.45118210079242     -0.23902337733127
  N   5.82439519380868     -4.38873691532955     -0.76447072468445
  N   5.76271501917282     -2.21977358518390     -0.02816299975497
  C   5.05056860102169     -1.17027776222443      0.13162919374358
  N   5.71301317383028      0.03705608535460      0.30704586020676
  C   5.06329648616006      1.12671062458262      0.15539833639199
  C   5.79130031504690      2.42953708725889      0.35838529355952
  C   5.18414252802752      3.70144192678916     -0.16660622094100
  O   4.06645659214611      3.82526868634695     -0.59430541355321
  N   3.73474249647358      1.17039550954054     -0.15008586573437
  H   5.27169468105846     -5.23841333951032     -0.84792155249428
  H   6.79951284838589      2.32339896899124     -0.04619963172410
  H   5.93560993697407      2.57902701799433      1.43583375098471
  H   5.85420362343152      4.57699131501956     -0.11838347269270
  H   3.32107655217486      2.06642813785266     -0.38969344768014
