22
Coordinates from ORCA-job 3390optt
  Br  1.19888337006049      0.68521036916719      0.78877461765016
  C   2.94806239354102      0.14660221810460      0.37191106515237
  C   3.34187837904157     -1.11917747225719      0.15650302462996
  C   2.59007933868220     -2.36253523227481      0.02897247733146
  Br  0.82996000195917     -2.40793332273656     -0.64937681535476
  C   3.23922671753375     -3.51385393079339      0.22466361484143
  C   2.70186241536678     -4.90992894765150      0.11363081046767
  C   2.97646012211365     -5.47851516951490     -1.20578673252112
  C   3.21288008714788     -5.93038026150280     -2.28793897488330
  O   4.56971852213693     -3.54930187443565      0.53394292241045
  N   5.36137021954831     -2.46674341372831      0.23716762882668
  C   4.78492083490807     -1.34794297235887      0.03906005479311
  C   5.70055115598725     -0.20912062856659     -0.28521751474462
  N   6.86356364115426     -0.31650254600628     -0.75269736166311
  C   5.16959859693842      1.17971750144590      0.00846454268740
  O   5.83448404857225      2.17599019003682     -0.03477613928109
  N   3.83345559255913      1.21625842520728      0.36254474294712
  H   1.63010413116581     -4.91164970201711      0.30591333463164
  H   3.18739850857379     -5.51605024335311      0.88159760938142
  H   3.42084821399477     -6.33444825630023     -3.25000599505090
  H   7.09757772399343     -1.30253335515774     -0.89545781544464
  H   3.47511598502104      2.13483862469328      0.58211090319265
