29
Coordinates from ORCA-job 3405optt
  Br  1.26936328385918      0.05575427052469     -0.96106840188744
  C   3.06481446272290     -0.07497427886596     -0.42335069393513
  C   3.60894874138972     -1.21654877218319      0.01910718125558
  C   3.11985518182810     -2.61856867713070      0.18690866943355
  C   4.42750441788311     -3.40008301157407      0.46688880009145
  C   4.32295446460127     -4.45205548119160      1.58077802056086
  C   4.28606290916201     -5.75559945896657      0.79815892158986
  O   5.21377230975194     -5.54298181443423     -0.25071481867432
  C   5.01997299557673     -4.22346095862529     -0.72964254666885
  C   6.36168820970720     -3.57084183879672     -1.04922079779863
  C   6.74412201266825     -2.86030962959951      0.25661343054516
  N   5.45088393508911     -2.37143516272581      0.73151922872310
  C   5.01343721876049     -1.14401460010728      0.31826045840396
  N   5.78861869981260     -0.11127531686981      0.18152876634318
  C   5.22555097086897      1.06413273345694     -0.24862258026919
  O   5.81790565662637      2.10028474410454     -0.41727894848934
  N   3.82805039637736      1.03988993818038     -0.52188429259200
  H   2.60350320186576     -2.99267698639888     -0.69842079597266
  H   2.42924225134233     -2.70205190647833      1.02847809569915
  H   3.45875290398480     -4.29505227083185      2.22338562893740
  H   5.22292781445192     -4.42062257953559      2.19630139092182
  H   3.28475693971659     -5.94433410801873      0.38916274624016
  H   4.60482305345552     -6.62764166848357      1.36514148069514
  H   4.33768214395866     -4.24029923843243     -1.58548398210505
  H   6.23490775723960     -2.82393107783317     -1.83581872496306
  H   7.08825247944039     -4.31057805014860     -1.37925698605298
  H   7.42463023413930     -2.02213608727112      0.13197730269889
  H   7.15977115439852     -3.55958682155326      0.98253114352643
  H   3.43624419932120      1.91199810978976     -0.84397769625704
