25
Coordinates from ORCA-job 3410optt
  Br  1.40050114306568      0.00459838142734      0.12998209197259
  C   3.27565518581443      0.24415595609475     -0.05625471758639
  C   3.76105443156435      1.52065925204781     -0.30826653385510
  C   3.01389537178933      2.81656853246153     -0.47614304361379
  C   4.14276348889262      3.83680225357117     -0.62446880459502
  O   4.27885390561493      4.64720130003654      0.53939678532227
  C   5.56150649374244      4.50368902198729      0.95075827968781
  N   6.31857066298525      3.68917008916531      0.35519064835489
  C   5.50386532687430      3.09004711792685     -0.70479978179512
  C   6.02293515952239      3.42660838172527     -2.09873144117342
  C   5.13925920619199      4.57452558229118     -2.55465331666105
  N   5.25195459120626      5.36969871463417     -3.51255403399170
  O   4.03014387161716      4.64805920583686     -1.75346257840712
  C   5.13650162613919      1.65785692203683     -0.43534891419214
  C   5.96538570292492      0.55594688573198     -0.30723350181364
  C   5.35656272229924     -0.66407343294579     -0.05681250395048
  N   4.03601319984778     -0.81754864821770      0.06456545829498
  H   2.38023657626072      3.04405941145873      0.38080752748898
  H   2.38403601831708      2.80965365891723     -1.36672398414528
  H   5.83939088080089      5.11591760601933      1.79879817554161
  H   5.89397485059328      2.59328606454432     -2.79120907108051
  H   7.07161855278075      3.71473297373271     -2.08424245999875
  H   6.10570410481471      5.19016740267897     -4.03303397562756
  H   7.04081493103483      0.63909035795915     -0.38751527288737
  H   5.94680199530542     -1.56587299112185      0.05195496871132
