28
Coordinates from ORCA-job 3413optt
  Br  1.79059158397384      0.26394923031581      2.39140099231884
  C   2.91276332656576      0.20721002112568      0.88075655811660
  C   3.19722573057629     -0.96629091398563      0.30504784665927
  C   2.78171491120189     -2.34259981138389      0.73910187561859
  C   3.37284714403405     -3.26027088948655     -0.34333446158084
  C   4.63917694198471     -4.10380603305829     -0.06724052288368
  C   4.62924541749365     -5.49704518505739     -0.69161529027285
  C   4.75293718989535     -5.22756442531357     -2.19773694701806
  C   5.75237053500677     -4.06858068492416     -2.26881406949277
  C   5.38505356965772     -3.18527946275213     -1.08492177726268
  N   4.13294719245688     -2.40021990522374     -1.27991761169165
  C   4.09054975657400     -1.07970564257653     -0.85230865261848
  N   4.79961823516248     -0.15791694679648     -1.37930535436050
  S   4.69296496444438      1.40478210072120     -0.83830415473149
  C   3.43281716943991      1.49698256192322      0.40199442800274
  N   3.03485828404582      2.59859867278207      0.88705324237074
  H   1.69692531842576     -2.42354958872336      0.81232803703947
  H   3.18146723761284     -2.55755258625122      1.73397693601573
  H   2.58845997674891     -3.82276632849925     -0.85329653721178
  H   4.97915773460903     -4.07380426659816      0.96639125643083
  H   3.73827038938555     -6.06837766594785     -0.42670675447541
  H   5.49978379808464     -6.05940081712947     -0.34546424104469
  H   3.79089199268325     -4.90795134481400     -2.60532392284154
  H   5.07284988209224     -6.10362468336207     -2.76014234794154
  H   5.72415420814234     -3.51666308741517     -3.20727959088711
  H   6.76785968393744     -4.44597007686624     -2.12098139976721
  H   6.20241735252670     -2.55818254823931     -0.73002572102905
  H   3.48308047323776      3.40360030753651      0.45166818453850
