32
Coordinates from ORCA-job 3415optt
  Br  1.41253365768157      0.52775895614023     -0.29439922957954
  C   3.22643704364971      0.07925247023938     -0.06838312359535
  C   3.64465960205328     -1.20370289833519      0.02588318785935
  C   2.87430717721018     -2.48907882086649     -0.00810090628307
  C   3.97599397015953     -3.53239356636327     -0.24076682156423
  C   3.75189636071197     -4.95137270336773      0.28114138137376
  C   3.67167424748350     -4.98284690065210      1.80961018878285
  C   5.13914276856698     -4.71130795514623      2.14491464003021
  C   5.85722378427618     -5.64723229498073      1.15590299891225
  N   4.96862115723124     -5.72772694223774     -0.02585707203042
  C   5.44215973765830     -3.23670497861427      1.86272272936012
  C   5.23278218085106     -2.89062514126932      0.37787140422706
  N   4.96795203504839     -1.46154412140630      0.19539645266327
  C   5.95028529566561     -0.45617044188504      0.31180160770613
  N   7.18776632433359     -0.67774262396003      0.51325387141001
  N   5.48787317217669      0.85038634933006      0.18488448327282
  C   4.23424152959970      1.08644287386590      0.01505817722614
  H   2.11303394151645     -2.47573359060307     -0.78661506251341
  H   2.35729841922495     -2.61685636947105      0.94718338426372
  H   4.15065121699568     -3.60563267219457     -1.31566325063587
  H   2.88751468703968     -5.39777549306710     -0.21104465051251
  H   3.36779906800653     -5.97699933051955      2.14262516082244
  H   2.99265162169562     -4.25154774871786      2.24837141115713
  H   5.39297146207602     -4.94834258179933      3.17733615741597
  H   6.00292657787676     -6.63304877271780      1.60170837922334
  H   6.84083382247649     -5.26198961063656      0.87686835373022
  H   4.73285286510759     -6.68849270334922     -0.22841273118688
  H   6.46192234569179     -2.98675223043243      2.16000390259563
  H   4.77791342580260     -2.61391248078735      2.46885437330223
  H   6.11335479589006     -3.17028395270174     -0.20234952892938
  H   7.39528292292141     -1.66793883150994      0.58556417227008
  H   3.93244278332082      2.12791510801651     -0.07036404077406
