25
Coordinates from ORCA-job 3424optt
  Br  1.83709860584098      0.87875807170579     -1.50423062799534
  C   3.33269956328315      0.31684645070678     -0.50788070683722
  C   4.05684022042946      1.20221873680090      0.19403100076788
  C   3.93923057300722      2.71026397167685      0.16269505224218
  C   5.17324753517941      3.22652415898526      0.89385167319922
  C   5.88842712234177      2.07290617400200      1.50056473771284
  N   6.53815137572093      2.88988400021605      0.49538887355415
  C   6.91125585005670      2.30493672320606     -0.72960001403757
  N   6.64814874016841      2.77176004400348     -1.87964976121207
  N   7.73687417866215      1.18334305589068     -0.61646420515938
  C   7.53768878612792      0.14837177642277      0.40667504103514
  C   6.05573627937162     -0.15991006645766      0.48388767707532
  S   5.42698734658947     -1.47373862203987     -0.43454667022003
  C   3.66684285368568     -1.11015703669802     -0.56499854900573
  N   2.82750186012302     -2.01839367660710     -0.81563374766269
  C   5.27435764019832      0.85558994439679      0.89420820411608
  H   3.04449261436621      3.05965734478985      0.68323273019303
  H   3.86267322817634      3.04660357875369     -0.87336546560744
  H   5.10040661084223      4.17608559571010      1.40566107959290
  H   6.31400513420632      2.06146192348269      2.49548009371487
  H   6.13443205265473      3.64536216719726     -1.80555418978640
  H   7.91085516703231      0.81449336924355     -1.54149961304973
  H   7.90174238069795      0.49947031200230      1.37166121034386
  H   8.13587569388403     -0.71482953911922      0.12246859209428
  H   3.24242858735363     -2.94750845827100     -0.84738241506814
