30
Coordinates from ORCA-job 3431optt
  Br  1.16461642467588      0.13640602996857     -0.24147156555879
  C   3.06612350303831      0.01748469484483     -0.20232059002386
  C   3.80244212276115      1.18983922664913     -0.18674090543444
  C   3.35909792918581      2.61846366836830     -0.17923648404969
  C   4.65082750812366      3.41308839098314      0.09489441793624
  C   5.82495071664885      2.43796879877171     -0.18273518359311
  C   5.18537877611019      1.07880758015989     -0.17576525641333
  C   5.77038592785047     -0.17721975818959     -0.17067988449930
  C   4.92407431224279     -1.27669189620817     -0.17394546991283
  N   3.59309320250036     -1.18518958350782     -0.19162843449204
  O   4.65130523674108      4.53731553265437     -0.76848815559284
  C   5.75615241099742      5.40495520697650     -0.58562259698003
  C   5.80910418005607      5.91902797756097      0.83887327292549
  N   5.86863026946201      4.76460330766192      1.72517545568475
  C   4.68160843432453      3.93408211101249      1.55067341453720
  C   4.66490502225513      2.84381067049630      2.52398949186877
  C   4.64355497949541      1.95127140156459      3.32128452834234
  H   2.58584620626613      2.80817235011743      0.56801701566684
  H   2.95718437713287      2.91710744177641     -1.15005227122017
  H   6.62672592793977      2.53703633902988      0.54966552201853
  H   6.24203350293745      2.64869087875767     -1.17128199526464
  H   6.84411050155253     -0.30975239318394     -0.15596393897758
  H   5.32569158659753     -2.28312602729597     -0.16067975697601
  H   5.62132940003585      6.21911066971154     -1.29603096828282
  H   6.69058804554542      4.88223724574163     -0.81919027169747
  H   4.92435237540216      6.54460204311658      1.02797991007609
  H   6.70262273399243      6.52756538147321      0.97978251822003
  H   5.96678128064223      5.03503754317774      2.69534110683803
  H   3.75718637895066      4.52147817490111      1.67405741329035
  H   4.62129672653572      1.15181699290951      4.02309966156428
