26
Coordinates from ORCA-job 3443optt
  Br  1.10090711629307      0.23052124921924     -0.23935784934003
  C   2.96918056649039     -0.02586636555424     -0.32546894660955
  C   3.78927197699489      0.99732931251579     -0.04351462447950
  C   3.38287826532694      2.40940066896540      0.33843632786499
  C   4.71550537171727      3.04314027771628      0.59648878593869
  C   5.73675556576905      2.20709719662821      0.36809330836313
  C   7.01397374432906      3.00328792937769      0.40283460451758
  C   6.92162752812100      3.93437248613347     -0.83584738761512
  O   5.82039163758397      4.79747195194421     -0.54382001414052
  C   5.32868548064931      4.41261597065974      0.76486417637429
  C   6.63508926495247      4.04829092550902      1.48159396000691
  C   5.25157274923867      0.90550295453615     -0.06329295239649
  C   5.92246327661049     -0.19699003620135     -0.42163449800341
  S   5.14722748212591     -1.66616479396144     -0.88631743050961
  C   3.40002205957706     -1.37563911819596     -0.71149661700085
  N   2.56945809793572     -2.30694586090403     -0.93238180870179
  H   2.71087292756558      2.41171872262347      1.20010800272052
  H   2.83806286558018      2.88574936721050     -0.48268534579557
  H   7.95749342296870      2.47690649854049      0.51278345066119
  H   6.72898866841510      3.38710553978351     -1.75950770529104
  H   7.82744361791626      4.53419742307389     -0.94577951469874
  H   4.72449053312635      5.22435284972458      1.15573186957837
  H   6.48761313424598      3.60738707149862      2.46413815448153
  H   7.32364474818315      4.89189087023259      1.52843901890932
  H   7.00370610835259     -0.24414098125535     -0.43840523919249
  H   3.01467378993076     -3.18559210982049     -1.18900172564180
