22
Coordinates from ORCA-job 3445optt
  Br  1.17664929371361      0.35438387430447      0.61251639340377
  C   2.91689658648253     -0.08557947719974      0.09848647454236
  C   3.44498471404374     -1.31640215605893      0.12022010707588
  C   2.79253875459498     -2.56556051781965      0.42840568092226
  C   3.47477220847985     -3.70891926260108      0.25511065779238
  C   3.07351913816028     -5.09719032339203      0.44125410176949
  C   4.14449348388325     -5.87480851042690      0.14526855689283
  N   4.52752956909679     -7.19714750659327      0.07605597906087
  C   5.77046291830586     -7.09630575449339     -0.31222021492907
  N   6.31167308713003     -5.81189254915723     -0.52584966127203
  C   5.29624869539734     -5.05633497445725     -0.23889360540312
  C   4.89640736627013     -3.67628600763922     -0.16483217355636
  C   5.53033669712553     -2.50601719620661     -0.30540530868014
  N   4.82675836836124     -1.32206063008234     -0.22066354156042
  N   5.59723492517192     -0.24047303527713      0.26790722574231
  N   5.07637306354822      0.86151785656068      0.26448569517832
  N   3.77776165576965      0.95928503507021     -0.25983156016051
  H   1.75854102327744     -2.53791839444402      0.74454957316432
  H   2.08991990103981     -5.40990344267100      0.76023983009135
  H   6.39324687988617     -7.96539566847597     -0.47784441323270
  H   6.58890940040903     -2.39470510877631     -0.49435777303148
  H   3.42774226985256      1.88871374983675     -0.07460202381032
