26
Coordinates from ORCA-job 3448optt
  Br  1.40819532872486      0.07378306266550     -2.01729614851890
  C   3.08335733106805      0.08561785077023     -1.13708561754152
  C   3.63592427259783      1.16036325280074     -0.57068005758615
  C   4.98165879897942      1.11444341924979     -0.01045107194209
  C   5.24323721981852      2.53650409240118      0.44666202674674
  C   5.45101992664271      3.38453377511797     -0.82684405319143
  C   4.01480973265949      3.45311765872767     -1.40515799391091
  C   3.20737867755794      2.62417933236897     -0.38095753781937
  C   1.71587874970714      2.91782798095165     -0.32416801028404
  C   1.45754504435541      4.30080006083033      0.07743168305061
  N   1.23510850342448      5.38554227798762      0.36943916930873
  N   3.91085360454730      2.99552114614859      0.85794279584455
  C   5.78028258457032      0.04195265619526      0.03499846373582
  Br  7.53593096435968      0.20059877945161      0.73178348197368
  C   5.40014089136746     -1.30301409346627     -0.41399726131701
  N   6.05008880751277     -2.38300096325314     -0.34204891822439
  S   3.80624584862449     -1.49072901047363     -1.18885604349940
  H   6.00621350104391      2.64436894587602      1.21070257645034
  H   6.17020031275859      2.92933475861288     -1.50530463247769
  H   5.80793809229212      4.37322621327619     -0.54773680410831
  H   3.92773392004023      3.03791514751540     -2.40808405788426
  H   3.64272441456872      4.47707013696480     -1.41146374185261
  H   1.21659606869096      2.24620274383743      0.37784163642314
  H   1.25902448983258      2.76290716422066     -1.30048001651787
  H   3.56434534917216      2.45805453477576      1.64979366029976
  H   6.96156756508281     -2.24812092355323      0.09201647284261
