28
Coordinates from ORCA-job 3452optt
  Br  0.92091696804304     -0.14012099309061     -0.43398131769517
  C   2.80508116471324     -0.05090361690655     -0.27461594221302
  C   3.40592471451226      1.13022357475417      0.02000900523931
  C   2.61231073591026      2.42257888850033      0.15115851591661
  C   3.57910235459715      3.56701455742102      0.30366280856822
  C   3.45046410929016      5.01077893951948     -0.22476530200814
  C   4.96098262582825      4.91943321383652     -0.59025692426897
  C   4.75719139926101      3.39501982993556     -0.64135788356383
  C   5.67654219988086      2.30018432752977     -0.14148803582780
  C   6.41430220135238      2.76417861680015      1.04621491205690
  N   6.96803517680713      3.20873212415486      1.94420835021231
  N   4.79646688410894      1.14599965228268      0.18733335385633
  S   5.57522707547084     -0.24580146293189      0.72139122908079
  O   5.19982474008425     -0.46276687112985      2.07757303484607
  O   6.95370640433304     -0.08157462153358      0.37540919537342
  C   4.81714628634994     -1.42072326532395     -0.29576303523263
  C   3.52319414598788     -1.25225007575049     -0.59302554563680
  H   1.91882081409506      2.31495249650574      0.98849407794185
  H   2.00391626751220      2.54082362294554     -0.74931576393495
  H   3.96568770286102      3.60853996089240      1.32612412299739
  H   3.14147235406060      5.78342064211544      0.47459128276863
  H   2.82978136456886      5.05551765912048     -1.12078855772311
  H   5.58558689518088      5.20664864369621      0.25563768663265
  H   5.30818876725407      5.41462657079435     -1.49358589381759
  H   4.38748074799700      3.10662764972562     -1.62952543590088
  H   6.40791148941758      1.96679474629083     -0.87874441728780
  H   5.42950489336720     -2.25312900426516     -0.61036595426810
  H   2.99522951715482     -2.01982580588909     -1.14622756611168
