27
Coordinates from ORCA-job 3454optt
  Br  1.66387581110796      0.57174452706525      1.01622379496319
  C   3.27775551044822      0.31541007240439      0.07329485441237
  C   3.98943246472937      1.35658908294313     -0.46543412460517
  C   4.00075333022186      2.87278744788276     -0.19457483602904
  C   5.48206773083453      3.35785258779152     -0.50355118454021
  C   6.51337301720026      3.57011097419595      0.65655929896480
  C   7.85309971083799      2.86356746043441      0.20276350185049
  C   7.29687590626183      1.74864066655150     -0.66189396575138
  C   6.08058154402742      2.13095510581737     -1.09928568391394
  C   5.22916596035722      1.02470419494744     -1.03466100313503
  C   5.98003892348477     -0.10142143701441     -0.71242237426215
  N   7.28324688265602      0.35755547421914     -0.52151676639917
  C   5.23986579232382     -1.21464860374676     -0.25537719076932
  C   3.89255449493476     -0.95890828259566      0.05451773891373
  O   3.31847625792179     -2.08331119552469      0.54305179622582
  C   4.27794985327257     -3.04118209342850      0.57205209845377
  C   5.46233673484167     -2.58339214442695      0.11559021260153
  H   3.70842724697773      3.05781866454655      0.84223816818587
  H   3.28957043719647      3.40973125044115     -0.82345791543231
  H   5.45396753144456      4.23222707734553     -1.15498039268268
  H   6.14725200412122      3.04671503209559      1.54389485025310
  H   6.66704950133713      4.61629066623114      0.92694894817751
  H   8.42758524358393      2.50258266140456      1.05563543630639
  H   8.48797187999310      3.54884206118838     -0.36138129804192
  H   8.07651340988445     -0.21955389608268     -0.30053786114062
  H   3.96288084942752     -4.00350185907538      0.93638852593404
  H   6.37133197057176     -3.15420549561073      0.03091537146034
