25
Coordinates from ORCA-job 3463optt
  Br  0.98940734768820     -0.06435229723865      0.00510742615258
  C   2.86327132303640      0.12218522140550      0.06299791071969
  C   3.47342271288418      1.26970950764164      0.55363655063417
  C   2.71204635125746      2.47104914630184      1.05897275151507
  C   3.03783503613929      3.71540810860615      0.29161482745849
  C   4.25294465211276      4.18618336194230     -0.13783602708246
  C   5.63195289734273      3.64509342860709      0.03207996031881
  C   5.64132695289028      2.49355881072213      1.04585888957987
  C   4.88078789440944      1.29076533438946      0.54934243117751
  N   5.63105121161324      0.29100207099029      0.09149089741819
  C   5.03088459151948     -0.79035028403781     -0.37560450202491
  C   3.64810205825426     -0.93329148430406     -0.40989523931106
  C   3.08530814166238     -2.14371807564473     -0.92530450951536
  N   2.67090718083357     -3.12802128448361     -1.34406631828978
  N   3.92949465483824      5.32821591683642     -0.78176788922466
  N   2.61709474969106      5.55748872563669     -0.75778749818124
  N   2.07314118028924      4.58556961129550     -0.11315744427151
  H   2.93445026440216      2.61096983610826      2.12140139682828
  H   1.64040157097603      2.30991652495932      0.98360719350993
  H   6.30099267943298      4.43434621826909      0.38228235103556
  H   6.02643598045786      3.28931824613044     -0.92386261357034
  H   5.22252262782878      2.84932165968081      1.99012268072545
  H   6.66656559933271      2.17677736671817      1.22346155674641
  H   5.66101910875216     -1.59315299096359     -0.74051980848696
  H   4.53463323235508      5.98200732043134     -1.25217497386174
