25
Coordinates from ORCA-job 3465optt
  Br  6.84917803082702      7.01589079334003     -3.20875681739464
  C   7.00867710966603      6.13833114300646     -1.53888954739668
  C   6.60361872980543      4.82881449814927     -1.37138751367192
  C   6.04695470252282      4.03933785260192     -2.54110866959109
  C   5.56777352033430      2.62979556658069     -2.15539128655407
  C   6.58592973735335      2.01440599152979     -1.18671789330697
  C   6.24707599985322      2.80582803580818      0.08375658306415
  C   4.72608988818543      2.84362693382898      0.00562226440265
  C   4.34729380055280      2.74344245353228     -1.26268810950515
  C   6.74779978470465      4.22683207288427     -0.08556065758535
  C   7.29318246158496      4.91955421627740      0.96839849804866
  C   7.70301470653426      6.24005400572278      0.77242708716878
  C   7.56031464629441      6.85234390213609     -0.47445406200449
  S   8.16440879122557      8.44075550931401     -0.33721638558280
  N   8.55258178128023      8.21100913878169      1.30274486103984
  N   8.26862927571017      7.06335038589605      1.72685478072182
  H   6.82961593617580      3.96762899150112     -3.30287101340621
  H   5.23219366844375      4.60600225071467     -2.99897212845328
  H   5.40209887940897      2.03810516189327     -3.05473019907661
  H   7.62085928759423      2.14600568977861     -1.50610339290729
  H   6.38307730558118      0.95414724407383     -1.03762874856798
  H   6.63899814952614      2.37415585133325      1.00347254730832
  H   4.08971553815912      3.03805392859268      0.85811861779839
  H   3.33615763896566      2.83418112852671     -1.63682496268540
  H   7.40876062971044      4.46234725419592      1.94290614813736
