31
Coordinates from ORCA-job 3468optt
  Br  1.41462197663940      0.67750635434455     -1.19603567394052
  C   3.18927996090169      0.50975328785991     -0.57640943086180
  C   3.83993760231796     -0.67455318533244     -0.69054460026949
  C   3.36012515229906     -1.95713747947859     -1.28493491065771
  C   4.46068767885720     -2.98161144773067     -0.96879189739193
  C   4.10334984893180     -3.96138723276293      0.16535795936262
  C   4.69720709923411     -3.32779246382934      1.42409190692638
  C   6.03185434563363     -2.78718019405907      0.91815317547108
  C   5.67761328852090     -2.16088587250090     -0.43787314165798
  C   6.85569937322136     -2.10550911426525     -1.41833512196052
  C   6.46298794098492     -1.52201819286795     -2.69774335283138
  C   6.09167502073342     -1.02513589295022     -3.72301413710077
  N   5.11836404458430     -0.80421800150044     -0.24275657963792
  C   5.87350594811068      0.23907818720954      0.30600949827178
  O   7.03505380773294      0.06415982839988      0.64526705347224
  C   5.14708597074447      1.48342201142454      0.42303342107055
  C   3.86499733870026      1.61092587556138      0.00138319216074
  H   3.22575393496878     -1.81874067572084     -2.35983015405504
  H   2.38959014645183     -2.23556729344633     -0.87147639846800
  H   4.73817884738871     -3.51454058106275     -1.87660604296076
  H   4.58902027772877     -4.92306308464246     -0.01377338790389
  H   3.03069826313209     -4.14429550206131      0.22822295516138
  H   4.80429416539718     -4.03059575418445      2.24907521865388
  H   4.06778737413056     -2.50308003103625      1.77084861025210
  H   6.72140669019979     -3.61788015737453      0.74350503055752
  H   6.52201189119580     -2.07369907323065      1.57569064058250
  H   7.21649048377325     -3.12502287730595     -1.57310733428706
  H   7.66279651768745     -1.52215608178879     -0.97317714845814
  H   5.78662978621175     -0.58142810301668     -4.64054025673119
  H   5.68782369675321      2.30899531668311      0.86233952754421
  H   3.34647152683260      2.55665743066592      0.09697137968713
