30
Coordinates from ORCA-job 3473optt
  Br  1.31546491935636      0.75765521736128     -0.88899517832701
  C   2.95997819889784      0.12905080789904     -0.23327420665945
  C   3.29729289186339     -1.16236411229424     -0.25639712905299
  C   2.37891090656473     -2.22964004537075     -0.81141121096046
  C   2.99822311702704     -3.62471205808468     -0.81392558547711
  C   4.14186241497144     -3.78018068007055     -1.83933931013690
  C   5.43861138493457     -3.37721175652310     -1.09267045167498
  C   4.94993742890175     -2.93366088904833      0.29660199387257
  C   3.71512919907890     -3.79086427790948      0.53435621422856
  C   4.04973958036168     -5.23217085808759      0.81394055393507
  O   5.16012160665698     -5.67106350127603      0.92486068178809
  N   4.56006239181807     -1.52166356277785      0.27636535266695
  C   5.55349901657471     -0.58392763231447      0.50299229549259
  N   6.79040696298454     -0.80069822588651      0.69974266539892
  C   5.11970877555929      0.86222765416489      0.57751136612207
  N   5.88119543593750      1.81238751528365      0.90940273044520
  N   3.79888730516361      1.10068185658967      0.26932763129254
  H   2.07915341992946     -1.95244035571052     -1.82425780801865
  H   1.46436218094304     -2.24571104825853     -0.21182518771108
  H   2.20922495600450     -4.36203185262994     -0.96996369111554
  H   3.96114717122938     -3.16517767094978     -2.72051434062001
  H   4.20404580182405     -4.81509655989379     -2.17640418850517
  H   5.97610513690946     -2.56793245450584     -1.58507170914646
  H   6.11358068185420     -4.22515293425240     -0.99368137657886
  H   5.68785543534536     -3.07607952749537      1.08342522269824
  H   3.09461598571126     -3.42967572401153      1.36194666379727
  H   3.16872459045301     -5.89850656285419      0.90344258265165
  H   7.06242558447900     -1.77361869012706      0.61739068045686
  H   6.80799319798624      1.43581603798044      1.10191249188523
  H   3.50373432067860      2.06476189105356      0.29051224725285
