29
Coordinates from ORCA-job 3474optt
  Br  1.06039875603025      0.23014874217995     -0.92331967462285
  C   2.86707152498590     -0.09532434951574     -0.46176311929836
  C   3.29755333451392     -1.36523978537753     -0.20417804722310
  C   2.39736691017283     -2.57208488880246     -0.27960563105571
  C   3.13626281659074     -3.89521712049919     -0.09676078614984
  C   4.08462219350510     -4.19735588635169     -1.27779348628400
  C   5.45462996471367     -3.59421997119319     -0.87255318146618
  C   5.16596152055697     -2.86651750469189      0.44430853782265
  C   4.08947226406875     -3.72786498994562      1.08708668510485
  N   4.61064999007407     -1.52508764879835      0.15320340756714
  C   5.51402348792240     -0.46691536897841      0.19141179168058
  O   6.69297543043092     -0.62213231573258      0.45272363542194
  C   4.91017325489718      0.83073995876676     -0.09380264321651
  C   5.81804201073148      2.02884265421251     -0.01985894110794
  C   6.78535393033571      2.05191940062343     -1.11903699444496
  N   7.53129867568500      2.08409813268387     -1.98708923979221
  N   3.66569680997846      0.98464264312399     -0.39646496834075
  H   1.87239964968838     -2.54411369581884     -1.23665829033526
  H   1.62681625066497     -2.45743793292394      0.48905441193802
  H   2.40385038412422     -4.68746669921462      0.05056125972680
  H   3.70524637774875     -3.77358546306854     -2.20797765142472
  H   4.17088601413240     -5.27279237607401     -1.42879881740969
  H   5.87494343704508     -2.91976699543454     -1.61664563485563
  H   6.18916697464346     -4.37812009327267     -0.68888280088623
  H   6.05047525844864     -2.69739216576263      1.04941568393419
  H   3.62798644477500     -3.26520408833796      1.96045755184157
  H   4.53181677799048     -4.67903063772751      1.38584572926558
  H   6.38239471496848      2.00715764886150      0.91484462787807
  H   5.21046484057672      2.93132079706991     -0.06072341426744
