27
Coordinates from ORCA-job 3476optt
  Br  1.34311605378593      0.29504862867188      0.11952557921566
  C   3.13018016150751     -0.25043504091653      0.16748233025014
  C   3.50527248261935     -1.52487849003657     -0.00825008900097
  C   2.53558500150602     -2.65440691260657     -0.26208370666081
  C   3.25598994676472     -3.90203193470563     -0.73902667157602
  C   2.50658596733817     -5.23062419210761     -0.66677989361865
  C   3.63743866284744     -6.30564539145218     -0.53578527458922
  C   4.96621673308995     -5.51056388825644     -0.40528708000690
  C   4.49396828450848     -4.15927422838438      0.10432077949988
  N   5.41881835000003     -3.06603502808786     -0.08107502466408
  C   4.94377706052688     -1.78126523121859      0.11449043737582
  N   5.82326140684121     -0.88389131033612      0.38139488192791
  O   5.40047807784582      0.41958298139213      0.51171837322470
  C   4.10898196887991      0.82080941336433      0.42456852568175
  O   3.84788186996656      1.97837845516512      0.55791014949774
  C   3.41163807536442     -7.15428274736042      0.63382670026332
  N   3.22856939821172     -7.78985009490446      1.57013416603369
  H   1.77838723433664     -2.32054207938502     -0.97256796906917
  H   2.00628129556952     -2.86042748026180      0.67569909398703
  H   3.61193142047263     -3.73749885394553     -1.76176091406539
  H   1.88063572241641     -5.41461506617987     -1.53721788619575
  H   1.86418339426089     -5.25764782392399      0.21427761702941
  H   3.66620312404773     -6.95688778241420     -1.40829467873944
  H   5.41665905973333     -5.38076810719714     -1.39064184576416
  H   5.68446256477043     -6.00700329635882      0.24471492315318
  H   4.18782453607846     -4.26466425605526      1.15766966906128
  H   6.36567214670973     -3.18758024249834      0.25203780774905
