29
Coordinates from ORCA-job 3479optt
  Br  1.49243580062453     -0.49004492834601      0.41794669466109
  C   3.27116569798083     -0.35414995922280     -0.17795069426052
  C   3.98183611838345      0.77718211729617     -0.00438286385729
  C   3.30586916223427      1.93074021348519      0.78560027119334
  C   4.36327671234040      2.99038979376812      0.83695606239813
  C   5.64641330615996      2.52707259932271      1.55434367972927
  C   6.58460880433237      2.98025792441092      0.46067457517780
  C   6.11235839278681      4.46718554479615      0.34188611709629
  C   4.62111366087491      4.48073259827590      0.82153909861654
  O   3.94076209848800      5.44389027591609      1.00007717979848
  C   6.23274296468382      2.05661320017391     -0.75759785016845
  N   5.34339450342476      0.84842815537787     -0.48235691257007
  C   5.97682862536446     -0.33411019810003     -0.87468723068415
  O   7.15799118011928     -0.41144905284808     -1.13958717380551
  N   5.19121704442626     -1.45290422018864     -0.97896269465223
  C   3.82360805383070     -1.56801818826302     -0.77250313663685
  N   3.13310885098560     -2.60256812190779     -1.01379936985756
  H   2.99133763766784      1.53919583829157      1.75358755825689
  H   2.40812651118672      2.24196574557016      0.25091744453078
  H   4.58010243380090      2.96980367940502     -0.22946295734911
  H   5.67499829826554      1.46346598754370      1.77133468726549
  H   5.78736420110342      3.07156741535829      2.48997851250716
  H   7.64765474364165      2.91231055835099      0.68662874605969
  H   6.15545285661809      4.88023895786900     -0.66853325317120
  H   6.71013160091212      5.11136129018375      0.98641615967996
  H   7.14099400416851      1.61421327281971     -1.14634510168806
  H   5.77834743207998      2.62035149065780     -1.57426998395419
  H   5.70162683505028     -2.26117188992672     -1.30488720192230
  H   3.69213246846446     -3.35455010006994     -1.41156036239344
