28
Coordinates from ORCA-job 3480optt
  Br  2.25777394369002     -0.81222238480883      2.49247725810909
  C   3.63865185054950     -0.55797853383773      1.23511269368230
  C   4.23655213221989     -1.62319373251689      0.65272587270856
  C   4.34481827713747     -3.12481139875868      0.90463447230352
  C   5.47289966363267     -3.63830408798431     -0.10252921250665
  C   6.68364173084779     -4.47758287210491      0.44800414659135
  C   8.00643301669032     -3.69730033614036      0.62431436605153
  C   8.41677849500375     -2.78566702346875     -0.56626115596437
  C   7.28205519968264     -1.82363860639797     -0.71275962823945
  C   6.03610696018904     -2.33999365748087     -0.55760452654098
  N   5.24777424148901     -1.30777531832160     -0.20263943780659
  C   6.00391227956625     -0.15743572383498     -0.23052218607689
  C   5.31627802911489      0.97296176269137      0.29748555279825
  C   4.14953695310066      0.76004111703001      0.98035825212280
  N   7.25516287529818     -0.45120870574896     -0.57274327170792
  C   4.81291223102643     -4.37453302804442     -1.18828027135157
  C   4.26018024024912     -4.98144937822377     -2.06090798314251
  H   3.40936542791021     -3.65963180907466      0.75984731125372
  H   4.65529068665767     -3.26511271206860      1.94402052629024
  H   6.85255570060760     -5.29330709566700     -0.25539740958024
  H   6.40257322662205     -4.93587683658694      1.39777045300455
  H   8.79176201119641     -4.43064030129377      0.81919728932510
  H   7.94094607400789     -3.06000204524258      1.51010897479301
  H   8.57417134217379     -3.38170440420459     -1.46798803965238
  H   9.34462531125499     -2.26290623075460     -0.33900424417129
  H   5.74893935533716      1.96008845077790      0.22563387587691
  H   3.62694227370727      1.59798746957453      1.42092700382141
  H   3.77436047103727     -5.50980257750804     -2.84598068199151
