25
Coordinates from ORCA-job 3482optt
  Br  1.18980245934322     -0.14599955571716      0.41052763657961
  C   3.01908503759620     -0.11065549743030     -0.08832280171648
  C   3.70305602548603      1.06826141750184     -0.16409547186925
  C   2.90254946723555      2.33203722821854      0.14714518059773
  C   3.57931215941301      3.70667602907529      0.05669645190961
  C   4.15023496774489      3.93562725587745     -1.31446206951653
  C   5.26503022434706      3.30197617110001     -1.64011406493477
  C   5.89537343705685      2.39557084238457     -0.61448172936932
  C   5.89427205809551      3.04454944821479      0.76570339033963
  O   5.85847138862110      4.45620081425344      0.83146190061269
  C   4.66886192760619      3.74723962687413      1.11668028631475
  C   5.12189290539706      1.08520769700340     -0.51598279310828
  C   5.80975800443464     -0.04528835730552     -0.76801332968717
  S   5.21792482514329     -1.64730420858029     -0.76639810748304
  C   3.50573366173430     -1.46883500484843     -0.35422099675916
  O   2.84008516665800     -2.47107709160243     -0.30887284922990
  H   2.49512121497417      2.20695557180404      1.15519430207874
  H   2.03232050197418      2.32855622845620     -0.51253903894688
  H   2.81662487250489      4.45440717543378      0.27930268816439
  H   3.64344266467107      4.60114584391773     -2.00141569699710
  H   5.73351452482712      3.40704975886211     -2.60990530705533
  H   6.91872843765395      2.15830380811186     -0.90448976409266
  H   6.49573282653457      2.55706699007260      1.52587172861242
  H   4.33808325157953      3.79660644946647      2.14935044544911
  H   6.86298798936759      0.00672135885588     -1.01661998989284
