34
Coordinates from ORCA-job 3489optt
  Br  1.23611646300652      0.38065296301975      0.26478507245873
  C   3.05698917515338      0.00737839877504     -0.04650776768877
  C   3.92492470151280      0.94595919802793     -0.48791069795263
  C   3.39702827540283      2.29798631192187     -0.97862558787314
  C   3.46999719642985      3.56075500724549     -0.02477658527918
  C   4.25367939313971      4.78606136571457     -0.62622492209082
  C   5.69033530579647      5.10701518162459     -0.12206229656422
  C   6.76086028169060      4.01833119318267     -0.39411561486211
  C   6.01280743307298      2.73439767718333     -0.10766667842823
  C   5.45902297981745      2.70098874208557      1.33223239771122
  C   3.99202233779138      3.20338031055415      1.37087044796717
  N   6.40634602225829      1.44161940241656     -0.64599400332155
  C   5.35464815834122      0.51849325515143     -0.50247522664770
  N   5.70767194534334     -0.70085549495796     -0.30200953878143
  N   4.74876721515487     -1.62640171867785     -0.09865335481830
  C   3.43474856329329     -1.38683899752123      0.22549923462692
  N   2.59883703720144     -2.25029585044410      0.65639813286976
  H   2.35599292262047      2.13659191462198     -1.24225372183458
  H   3.90390392813007      2.51754850879716     -1.92215009400865
  H   2.43617192455002      3.88720015215345      0.09469026699411
  H   3.66032376141142      5.67891922058165     -0.41940722218343
  H   4.27386651700273      4.69003902682859     -1.71686377029852
  H   5.64280447707687      5.29933303447673      0.95246019275181
  H   5.99729183614477      6.04869158146554     -0.58008966589878
  H   7.64145506272188      4.18142745090210      0.23142645824033
  H   7.07234175857833      4.03892201518407     -1.44083979518720
  H   5.20025775930517      2.92096338559038     -0.75974014955516
  H   6.08563738141240      3.30979394712270      1.98638661859603
  H   5.51298892484522      1.68334428420056      1.71903376613593
  H   3.90798392376345      4.08681606509789      2.00710384453967
  H   3.34107039041091      2.44351166670885      1.80829376411815
  H   7.26700226045306      1.03197404143719     -0.30406151591031
  H   5.11629723965829     -2.54866786326556      0.07204014462542
  H   3.02880744750847     -3.16503537720512      0.77720786754945
