30
Coordinates from ORCA-job 3496optt
  Br  1.20098206884188     -0.34685121050523     -0.13312895617036
  C   3.06628681777357     -0.10061635225355     -0.12257710837300
  C   3.62746153284984      1.10658015822302      0.16207969139122
  C   2.78415135573197      2.31472917064108      0.49727605355235
  C   3.60261940725118      3.59624194319588      0.68038414033746
  C   4.85308078036797      3.30018243568124      1.50259915830528
  C   5.68486980463091      2.57122041786204      0.44133655920298
  C   5.50197485106969      3.48747262074188     -0.78710950904978
  C   6.59065573998925      4.54404993098747     -0.90704135889686
  C   7.93051770251980      3.98909002055137     -1.29868943915518
  O   8.16211990888204      2.81882737093164     -1.44964458900215
  N   4.18187111602780      4.10788948812785     -0.56882024532718
  C   5.05937874855176      1.23057140619507      0.16708520821043
  C   5.80193451992487      0.14145075913234     -0.13022694755082
  N   5.21397055062224     -1.05019749249343     -0.41397575515017
  C   3.84639898816508     -1.29240066545445     -0.43371353078716
  O   3.41577305412280     -2.39819930276038     -0.69034530034626
  H   2.21877914781708      2.09681297862177      1.40937643657193
  H   2.03188699204872      2.45697430237733     -0.28381785324516
  H   2.97071700334620      4.36038660031920      1.13440467680030
  H   4.65063779911389      2.68550307074932      2.37923872567597
  H   5.33284200222256      4.22627260840859      1.82011796929535
  H   6.73469389626545      2.44963923646349      0.70318455959929
  H   5.51570404548523      2.88332431416987     -1.69657130438553
  H   6.71202643541809      5.10011323901190      0.03017617690741
  H   6.30917244581637      5.29904158656656     -1.64855937901908
  H   8.73206838425934      4.73707436337574     -1.45209241508854
  H   3.56310643141339      3.98477130570451     -1.35880367937774
  H   6.88291539687630      0.16976226205611     -0.16941812041780
  H   5.77940307259469     -1.85971656662827     -0.62672386450719
