28
Coordinates from ORCA-job 3506optt
  Br  1.15078483053301      0.02216317669475      0.08198285354018
  C   3.02379661642610      0.14219014207153      0.11907894424333
  C   3.65388471601690      1.30710605623071      0.36279840952866
  C   2.90163555312388      2.58390783604329      0.64213139466041
  C   3.83179716897066      3.78073680194069      0.76665172583781
  C   5.03343785465301      3.44141119057047      1.63880860081267
  C   5.84227319598944      2.61937891886926      0.62613741445128
  C   7.31531598496623      2.45407628796879      0.99916157364273
  C   7.50715244947348      1.69250753009671      2.23225146866177
  N   7.64654082244010      1.10103720198806      3.20316506570835
  C   5.69239940125710      3.52754635052846     -0.60737806145202
  O   4.39062535359471      4.08111615261413     -0.51566796337214
  C   5.11475564706560      1.31138617291629      0.38903019975341
  C   5.74565272625216      0.15072452744690      0.18871672785592
  O   5.11522964849800     -1.01222108704465     -0.05379217173443
  C   3.74076148098552     -1.10983733032970     -0.11967207524466
  N   3.18596903815480     -2.21285687819647     -0.36071904581283
  H   2.32124341502343      2.45906234869115      1.56148774483384
  H   2.18129162093324      2.76551868063028     -0.15748212675492
  H   3.28119201087266      4.65814521708226      1.10292145089969
  H   4.77433648376511      2.87979748334023      2.53621631350310
  H   5.58166963205026      4.34243515175067      1.92058914917108
  H   7.75815281756883      3.44186851046627      1.14052826588656
  H   7.87423275340272      1.96612883568724      0.19714463152164
  H   5.79105694939799      2.97868483257710     -1.54493962151744
  H   6.43824994546029      4.33050101973647     -0.58129871822120
  H   6.81627408190690      0.00791565912465      0.21500506376284
  H   3.87628780121784     -2.95043078949556     -0.48285721416567
