30
Coordinates from ORCA-job 3509optt
  Br  0.88678907428503     -0.37058595464408      1.21077491629620
  C   2.78911752160720     -0.20123475489707      1.04377261303105
  C   3.46670615548272     -1.09877199583165      0.20600175195113
  C   2.62648485912062     -2.10017857661827     -0.60317060053949
  C   3.65588419737470     -2.81710744157096     -1.41728472429989
  C   4.59035485527456     -3.61293984506792     -0.49233005741220
  C   5.89701683189705     -3.05243821592085     -0.97220755810426
  C   5.89133804890773     -3.25622598839977     -2.53005130089443
  C   4.63853399961642     -4.03636537277344     -3.07462469319676
  O   3.36136582839609     -3.61840743458998     -2.54055132186852
  C   4.60231138013274     -3.94377804769588     -4.53360032466357
  C   4.61208140153278     -3.86707705240602     -5.72778676877190
  N   5.86944359190413     -1.63539511061987     -0.55455876796960
  C   4.89259079403209     -0.93713298026321      0.17333953922063
  C   5.41716312132361      0.12322658788567      0.93753591144411
  C   4.60684680644646      0.94050019463755      1.68092207124386
  N   3.28638585631126      0.77890847798001      1.75329260468525
  H   1.91561143342687     -1.55224332158172     -1.22375173188452
  H   2.05726461313113     -2.75199479765059      0.06269054850740
  H   4.20268906068072     -1.98034372689954     -1.84485462237694
  H   4.48147574572756     -4.68011972773348     -0.67380445863002
  H   4.42501834976020     -3.42750942309808      0.56726449412485
  H   6.78219473676143     -3.51266446799864     -0.53005979589060
  H   6.75754284266316     -3.84024961418233     -2.84208310356194
  H   5.96575420177813     -2.28947315345166     -3.02689256875006
  H   4.76906402069613     -5.09000373680149     -2.81070540617351
  H   4.60622958239516     -3.79689330795593     -6.78928095385404
  H   6.78534766644131     -1.24742912981737     -0.40230755451030
  H   6.48702269493837      0.29108740637746      0.94446631420585
  H   5.02637072795456      1.75484051158912      2.25984554864221
