29
Coordinates from ORCA-job 3510optt
  Br  0.95062487215608     -0.47162791403787      1.58500758077019
  C   2.75285442465590     -0.40524311377509      0.94625721344891
  C   3.56245825638120     -1.54617352495838      1.01048800783332
  C   3.04479592501662     -2.89234752831383      1.46572865194741
  C   3.63391953158469     -4.13787576553266      0.77966638763424
  C   4.23877866672296     -3.84548529405355     -0.59956805052962
  C   5.70633828966493     -3.43696408782359     -0.37165285228815
  C   6.46926167815559     -4.69234135194229      0.09637384096956
  C   5.54117603796368     -5.53488655135645      0.98324651335451
  O   4.61240985740058     -4.70594606549194      1.65587952696703
  N   5.84569417101772     -2.40333919311700      0.67248048254705
  C   4.88366870548683     -1.35230342027268      0.58862194511168
  C   5.28352878136926     -0.12679046636597      0.07641795655090
  C   4.36157570550500      0.90126630744393      0.03221501528209
  N   3.11688412352637      0.76559312124553      0.48322829436225
  C   6.28162050862443     -2.91354658616857     -1.62150763249902
  N   6.70780391980611     -2.51389196049913     -2.60726432088846
  H   1.96871012244487     -2.89955235798266      1.30218913153255
  H   3.18327338004209     -3.01412275441853      2.54412148318083
  H   2.83043804446145     -4.87296293408601      0.66814595292991
  H   3.67881578894867     -3.05548786154304     -1.09902576789744
  H   4.21075906909885     -4.72199152407006     -1.24835355542732
  H   7.35846610368653     -4.36619609563416      0.63635487982590
  H   6.79372026522300     -5.27359789565878     -0.76687689122527
  H   6.10319250172614     -6.06144418730425      1.75178718400177
  H   5.00558726799676     -6.28348270626770      0.38898764935373
  H   5.73702469003777     -2.87955423627879      1.56223978196508
  H   6.30160389854051      0.00156331746695     -0.26388476411324
  H   4.62501541275533      1.87573263079660     -0.36030364470039
