31
Coordinates from ORCA-job 3512optt
  Br  1.01240663998126     -0.06370370980708      0.35475392477172
  C   2.90656138589992      0.00290919688764      0.17863282941817
  C   3.60968628982389     -1.19398467057796      0.17312864333570
  C   2.89495582353610     -2.55149037373369      0.14824062441896
  C   4.00833591960197     -3.50953960265712     -0.22514481049574
  C   5.07775895490636     -3.37655529227029      0.86789951091990
  C   5.95003677419785     -2.29741713808779      0.27489512905963
  C   6.56559776732718     -2.87427746833018     -1.04938093984600
  C   6.37505876550161     -4.39809481640793     -1.32971801377836
  O   5.10572980463606     -4.90447172553399     -1.74792998023519
  C   4.00674769860076     -4.89978194071742     -0.83147453408583
  C   5.02823706925471     -1.08570440484135      0.10384531327957
  N   5.65572456857068      0.08123984010403     -0.02758107475562
  C   4.94208573561341      1.19340521206088     -0.06208897102488
  C   3.55615146763093      1.22900714257369      0.06273271731778
  C   2.87756524014817      2.55181694068854      0.03512922506687
  O   3.47846132730222      3.59251042231312     -0.00278428123544
  H   2.10959590410961     -2.51221333060331     -0.60908968842999
  H   2.41739721969647     -2.75808051778685      1.10917427304701
  H   4.37798657516768     -2.98844637986282     -1.10610383465205
  H   5.61824106050566     -4.29975411695535      1.05624818695952
  H   4.63314893759197     -3.06651547791246      1.81633872264576
  H   6.75228360288306     -1.96254479673172      0.93372768658172
  H   7.64746068609774     -2.73158843896536     -1.01751726736263
  H   6.21839847423202     -2.30833500345507     -1.91588371846471
  H   6.74624997251633     -4.98086373739379     -0.48000872175896
  H   7.02277705286906     -4.62821351431956     -2.17540624941917
  H   4.12579582066260     -5.69235198114359     -0.08493482100847
  H   3.12830132999203     -5.11492926901706     -1.43962718450953
  H   5.47317868773717      2.13083852363594     -0.18303724542651
  H   1.77708344340544      2.53513042884792      0.04396454966676
