25
Coordinates from ORCA-job 3518optt
  Br  1.19057282776194     -0.08930816934792     -0.03787279691119
  C   3.08437645084348     -0.07355590004531     -0.02567357568425
  C   3.77401567811893     -1.26218020127242     -0.02246591648022
  C   3.23946201321189     -2.67934578888257     -0.02551615048833
  C   4.52776217711235     -3.43516021371286     -0.02081369753361
  C   5.63927567907395     -2.62770531605819     -0.01556040134373
  C   6.78723854725031     -3.46652234404111     -0.01188504073448
  C   6.31323346282432     -4.75305514970184     -0.01531242304023
  N   4.93288573527231     -4.72640947810664     -0.02047620494162
  C   5.18413131920584     -1.24665247882602     -0.01636840303431
  C   5.88594205833664     -0.04466448949251     -0.01273562134039
  C   7.31207558779496     -0.04821337462869     -0.00750870626319
  C   8.51116984680121     -0.07127821429391     -0.00331647519622
  C   5.15182879781475      1.16193265377046     -0.01470482063176
  C   3.75966433391255      1.14175594979593     -0.02119522982537
  C   5.82813356162795      2.42114682393950     -0.01024454123396
  C   6.38657015266779      3.48173065434978     -0.00659415624313
  H   2.62166578664651     -2.86394149553824     -0.90844439700999
  H   2.61473155700255     -2.86503452368549      0.85232747227426
  H   7.82255693012085     -3.17290874062644     -0.00763802978436
  H   6.84209057965758     -5.69080659153714     -0.01441917032734
  H   4.34210915121108     -5.53899401554882     -0.02408029518589
  H   9.57474151340092     -0.07910592399793      0.00048473535821
  H   3.21157873288379      2.07274371598174     -0.02303731992786
  H   6.89018751944549      4.41853261150663     -0.00294883447103
