17
Coordinates from ORCA-job 352optt
  C   1.07417643422208     -0.12216931254737     -0.36110886343544
  C   2.39891154380369      0.00729140991355     -0.36506247968590
  C   3.10248319342881      1.27452370174636     -0.23750695454581
  C   4.42839010582237      1.42132690668320     -0.17486042771489
  C   4.83844657819198      2.85284394329281      0.03112216503811
  C   3.54092049197290      3.62715879970939     -0.27369541823341
  C   2.40313295271004      2.60570371073335     -0.08803231184927
  H   0.60247947103422     -1.09110392933018     -0.45395493028416
  H   0.42253049244283      0.73776675948485     -0.26348350607588
  H   3.02213798633666     -0.87686798019337     -0.46117937659352
  H   5.13335914861481      0.59980184563088     -0.21837534918340
  H   5.16859068906489      3.00528167914805      1.06448041135315
  H   5.66887632368955      3.15630389856064     -0.60869527203350
  H   3.55857034595962      3.95536049881891     -1.31364192681244
  H   3.42121516324530      4.51303184009541      0.34794772143188
  H   1.60183680904239      2.73984014608954     -0.81708351647925
  H   1.94494227041782      2.67390608216396      0.90413003510372
