25
Coordinates from ORCA-job 3537optt
  Br  1.70088262798656      0.57440375428212      0.02707040475414
  C   3.40382058992346     -0.17234826547506     -0.09671626435898
  C   3.65601423836465     -1.48212472133892     -0.12991397089946
  C   2.85730929716547     -2.67554571226683     -0.07526096485443
  C   3.69791961220893     -3.72861056107328     -0.11793978010855
  C   3.65090845901529     -5.18297503406199      0.06913847839986
  C   4.42734792814095     -5.86309938209244     -0.77781648352740
  C   5.59867766989021     -6.52894413609830     -0.17730407340718
  N   5.84924968627654     -7.69703870467226      0.21639128755733
  C   6.63274695891270     -5.39934844532346      0.03349702631629
  N   7.84639174360759     -5.69437160365989      0.27439117151248
  C   6.27909320682327     -3.96393959759954     -0.06224269548043
  C   5.10421554254956     -3.27142172415938     -0.15456746744758
  N   5.00819461403138     -1.89491016418351     -0.23911130279255
  N   6.04633204958618     -1.04348923459432      0.07127673542118
  C   5.74754862934384      0.18922924776173      0.09206443742117
  N   4.48541955702536      0.71605245998808     -0.17256440682096
  H   1.78084548369847     -2.68857439768256     -0.01380388748583
  H   3.51032247917743     -5.54025992476002      1.08590640716152
  H   4.63022007382711     -5.40875725960606     -1.74368104312803
  H   5.08161984885446     -8.33160548833572      0.00190149190561
  H   7.94485414155269     -6.71129729015444      0.31659804525149
  H   7.16619552004815     -3.34312872692683     -0.01667191732334
  H   6.52816104670079      0.90380833175484      0.31534460742033
  H   4.31670899528892      1.67229658027809      0.09601416451330
