23
Coordinates from ORCA-job 3545optt
  Br  1.46249197929441      0.54873540076131     -0.15281528591161
  C   3.26746904384332      0.06599099469436     -0.04133036677711
  C   3.68545164731005     -1.21834977948249     -0.03033852261882
  C   2.95709097645710     -2.47920871315217     -0.08736472913276
  C   3.84904904119433     -3.48725381197590     -0.04324077376322
  C   3.87598747306003     -4.95220747638570      0.08500439442125
  C   4.76105000554440     -5.53579098481225     -0.72651940668180
  C   5.93952100086396     -6.09009271076515     -0.04353577249699
  N   6.34730621536815     -7.20182266825486      0.34682246300569
  O   6.75836465681036     -4.98702478468609      0.24018303143826
  C   6.40111116099018     -3.66860482534834      0.18916535024348
  C   5.23569806352650     -2.98773691691394      0.06589525420554
  C   5.10075782746306     -1.52245749128853      0.07417006660922
  C   5.96679056052930     -0.50794878654803      0.15721982097498
  O   5.55753376463484      0.77060516811961      0.14092484360426
  C   4.23035714208174      1.16137357362864      0.04126560474153
  O   3.99059156443352      2.33023327903569      0.03188096783530
  H   1.88327069372426     -2.56159997383829     -0.15332757566913
  H   3.68147720746263     -5.36429800171603      1.07168535437376
  H   5.00418984679923     -5.02690707826203     -1.65496946502819
  H   5.70987805447663     -7.93459579672945      0.04754222624686
  H   7.30891340183388     -3.08852680690936      0.30362194190999
  H   7.04164867229807     -0.58751180917095      0.24106057846949
