31
Coordinates from ORCA-job 3549optt
  Br  2.03339312546950      1.51921299319888     -3.21911463399157
  C   3.15041025267250      0.88596139608299     -1.82652688838858
  C   3.63003030974121      1.73751595886559     -0.89901998828779
  C   2.87453111574617      2.99742482267909     -0.49680466811918
  C   1.62274328096433      2.33495844276672      0.13252375664276
  C   1.79265450727120      1.62404885287882      1.47046397482747
  C   0.40261472554225      1.01609181570885      1.58027106191221
  C   -0.45012768093675      2.14023742077369      0.90973916026860
  O   0.46940485384173      3.11855195999068      0.38648655362910
  C   0.37860586535674     -0.34264684016399      0.83170283738814
  N   1.37058397258011     -1.30307842639297      1.34622838097509
  C   2.22848842808969     -1.99910812698331      0.36674602540602
  C   3.22925215360455     -1.02337773482724     -0.22131128331348
  C   4.17181366907892     -0.44476937538757      0.53180374649706
  S   4.80723489651990      1.14548354804953      0.25566899872610
  C   3.03587024603372     -0.58724044609696     -1.62434677543214
  O   2.62104446399828     -1.34205008857266     -2.47187025098575
  H   2.59577318316050      3.60559078950697     -1.35480586241717
  H   3.43075911066251      3.60123735218573      0.21938356597062
  H   1.30868425469654      1.60708174904734     -0.61288217792910
  H   1.97957250171344      2.38093236228869      2.23526388845696
  H   2.54796476866486      0.85823160153613      1.54056692217587
  H   0.09742534675708      0.85150820004532      2.61371694805131
  H   -1.10642236952701      2.64990217419213      1.61159749783886
  H   -1.05081629889202      1.74036925796678      0.08504812390343
  H   -0.63185416511799     -0.76144650340224      0.87612750817056
  H   0.57662011756436     -0.17503957642377     -0.23091503138720
  H   0.92465930008734     -1.98885099083939      1.93883436978434
  H   1.67043968062371     -2.45741943212447     -0.45587064057513
  H   2.74598321853157     -2.79470350883787      0.90537531563610
  H   4.45566316550103     -0.85060964771150      1.49691956456649
