30
Coordinates from ORCA-job 3559optt
  Br  1.52593974045140      0.17976178764612     -2.00662268693132
  C   2.97439301430103      0.28813081201049     -0.81720439066844
  C   3.44796463987826      1.48032572832038     -0.40377674344900
  C   2.97160078319652      2.86046338887851     -0.75889578161390
  C   4.03811014053382      3.81329987835615     -0.17074511380279
  C   3.48918841304147      5.07352654551143      0.48635626517030
  C   2.59552564141900      4.73382041253179      1.69929168821480
  C   3.14038006293020      3.46782388532738      2.40509715962120
  O   4.52914594767671      3.33881218823007      2.20620123858280
  C   4.85862607113637      2.99580059347140      0.86683507498667
  C   4.53732365183943      1.56602853560537      0.52182177221180
  C   5.09196192592152      0.42821477036307      0.97696819278266
  N   4.61726357138625     -0.77546904608086      0.54505550712053
  C   3.55680919733825     -0.97080187725921     -0.35191214784722
  N   3.13443339105202     -2.11155653279581     -0.73324513096083
  C   2.51780128309422      5.87222969148352      2.61152256450946
  C   2.47763602051106      6.79993905276533      3.36855391212426
  H   1.97937903896572      3.02391228283578     -0.32687091517755
  H   2.85566361380282      2.97685567284310     -1.83668811860326
  H   4.71706331989175      4.09949594431850     -0.97478824004401
  H   2.92882366296025      5.67945256494564     -0.22631332125149
  H   4.32664658422779      5.67753940718390      0.83752828590334
  H   1.58052673711679      4.51747251378146      1.35571148987842
  H   2.62281046016571      2.57863083267834      2.02637580499546
  H   2.97741058352570      3.52616873742748      3.47853930210700
  H   5.92345507774156      3.21385436552486      0.78881482218097
  H   5.90801668978174      0.39369371183233      1.68620335319104
  H   5.05075094437280     -1.61487463370847      0.89651769466652
  H   3.65293054407007     -2.87917701367161     -0.31311649975813
  H   2.43941924766968      7.62562579964347      4.03778496186070
