30
Coordinates from ORCA-job 3561optt
  Br  1.27459150153842      0.51549592427535      0.23536184625387
  C   3.11552390838660      0.12884583515394      0.18386654255458
  C   3.59230293259515     -1.13729346784693      0.22580508280188
  C   2.73899655054720     -2.37424908331761      0.28179515436775
  C   3.54202320035087     -3.59269119855122     -0.18055906780284
  C   3.77064123017822     -3.59314408184245     -1.70079978483052
  C   2.47949718630923     -3.88906173725614     -2.46115018633315
  C   1.81145680365991     -5.13572128427534     -1.90227381605406
  O   1.60260952937309     -5.02354197405343     -0.50635531861860
  C   2.81421247930944     -4.88385179564703      0.19463525719297
  C   4.86912845315602     -3.54638603299963      0.55767171920368
  O   5.63851642243377     -2.39341241754641      0.22172131309349
  C   5.03459770939234     -1.20081032692040      0.18471465637032
  N   5.83787577204474     -0.19162192869166      0.08596506499532
  C   5.34379196534466      1.08278727012026      0.03628935048647
  O   5.99659535497590      2.09224465100861     -0.05055265250832
  N   3.93286420747996      1.19486560597797      0.10499948451660
  H   1.84443930586324     -2.24579580146145     -0.32616539278906
  H   2.39059167648809     -2.54501303206228      1.30621242951107
  H   4.51003384353375     -4.36775896808289     -1.93187440356040
  H   4.20063084537570     -2.64355313935083     -2.02606766137712
  H   2.69129745539643     -4.03109792436347     -3.52236138600185
  H   1.78686579340619     -3.04787333810743     -2.38289433631362
  H   2.43486694175995     -6.01843953528608     -2.10434214518058
  H   0.83091735768569     -5.29937974076088     -2.34676481183477
  H   3.46733592630674     -5.74404809561931     -0.01764507548161
  H   2.56578576911902     -4.89487047944529      1.25778319464492
  H   5.50318342534780     -4.39242736205079      0.29419697498832
  H   4.70558497732564     -3.55621328106441      1.64103074275208
  H   3.56324147531620      2.13401674006725      0.07975722495322
