28
Coordinates from ORCA-job 3562optt
  Br  0.88736371950212     -0.13314167305349      0.78508398433457
  C   2.76116759969891     -0.10088666498388      0.62371405191360
  C   3.44099690228689     -1.12687705838981      0.03193902219334
  C   2.63215127375302     -2.34262038747609     -0.44363505699154
  C   3.61631440486497     -3.36178945047194     -0.92109656347276
  C   4.61747213619389     -3.74243788501345      0.19409328719916
  C   5.89882593319076     -3.41243799400970     -0.51654369966107
  C   5.86514787074779     -4.30010345513857     -1.80859596977579
  O   4.67777801371721     -5.10757763664303     -1.99680387045064
  C   3.42888516952045     -4.63866614859003     -1.67401107680878
  O   2.45007265909307     -5.24529757882893     -1.96640247293110
  C   5.84498312919053     -1.87907086483709     -0.80381438121146
  N   4.83650813813157     -1.04663464398170     -0.04376979767349
  N   5.48950493774723     -0.00676460384843      0.50056799721875
  C   4.86168235511325      0.95434610814949      1.07593876870324
  C   3.41281336245207      1.06086376890056      1.19489911839455
  O   2.85618512909408      2.00138634579755      1.72609174980172
  H   1.94096383561830     -2.02205039224286     -1.22462521255136
  H   2.02676668051491     -2.68605499857695      0.39592290732446
  H   4.15168091562252     -2.80687568335156     -1.69014515224873
  H   4.54086762553517     -4.79470407058692      0.46290034031986
  H   4.47110934325148     -3.15469851927478      1.09657729931184
  H   6.79538575708989     -3.64336432657018      0.05767365984950
  H   6.66890948366605     -5.03087018745202     -1.77813464816187
  H   5.99648389357086     -3.68956869325667     -2.70528954729003
  H   5.70703790267314     -1.67879822402486     -1.86736976622991
  H   6.78065478230136     -1.41422869103028     -0.51625853997314
  H   5.47328704585846      1.74492360878566      1.49409356886706
