29
Coordinates from ORCA-job 3565optt
  Br  1.16635778651925      1.26706960245475      0.04011317231103
  C   2.91117111523795      0.57081061513790      0.01813185451768
  C   3.20384456202656     -0.71652027007901     -0.24546904681780
  C   2.11707799055341     -1.73181220550968     -0.51143347037249
  C   2.43193397361555     -3.22385900312774     -0.33087336737181
  C   2.90342194290124     -3.62986522934091      1.07381105074803
  C   4.31070584019755     -3.19029188373913      1.51015889054694
  C   5.31571287071947     -3.30013630088162      0.38823362952857
  O   6.18572747357280     -4.12492148788265      0.36009588962802
  C   5.17397032539918     -2.30259138563853     -0.77593816801446
  C   4.35334400879595     -2.95925173681723     -1.89199004707896
  N   3.29969763107675     -3.80290547195357     -1.35555248597344
  C   4.63879474754571     -0.96414992562064     -0.33289900000214
  N   5.53003765792794     -0.07675060257799     -0.05152345522237
  C   5.15455445823829      1.17960946749884      0.38245767584797
  N   5.89136376353029      2.07766533518571      0.85309452923576
  O   3.80360439547994      1.51813186209399      0.25972321385003
  H   1.73704774713861     -1.59140704654776     -1.52947581575551
  H   1.28249453756865     -1.49920576000998      0.15143592979655
  H   1.46577281654652     -3.71898173030330     -0.45136979491619
  H   2.87553354989867     -4.71975782704444      1.09487266010499
  H   2.18104550934827     -3.26938683945212      1.80995796514398
  H   4.65548351166449     -3.81703646724024      2.33074641724165
  H   4.29603276267920     -2.15529932489523      1.85976624529195
  H   6.18591953440655     -2.12085968679060     -1.13329082830806
  H   5.02406146256843     -3.59389721031341     -2.47078685714142
  H   3.98473781023168     -2.16908510982913     -2.56221607987037
  H   2.75657963389479     -4.20354854782629     -2.10660090128263
  H   6.85097058071626      1.74323417105006      0.86282019433449
