27
Coordinates from ORCA-job 3566optt
  Br  1.39268216453716      0.59733370724738      0.39578499861397
  C   3.12481829156233      0.00451343936409      0.01353820607149
  C   3.48392688832286     -1.28289227107029      0.11067127949145
  C   2.51308667301402     -2.41612492441088      0.41107550091489
  C   3.28335270910779     -3.64777620900135     -0.00999501373760
  C   2.86413544280598     -5.09592707454834     -0.06869636700619
  C   3.95375765986595     -5.78310997129883     -0.93242059041364
  C   5.41076278244935     -5.32150646930802     -0.72036652167199
  O   6.23301231200655     -6.10047432947203     -0.32072026340532
  C   5.85036579330326     -3.87779946257755     -1.07624763802234
  C   5.45665666573399     -2.96932266385368      0.11748203276816
  O   4.44068775329967     -3.63483212085339      0.82280970936712
  C   4.90016187771369     -1.57363297752024     -0.17711008105061
  N   5.74403502789174     -0.70837458562906     -0.58386787017387
  O   5.32104942513094      0.57997474109029     -0.76657003350285
  C   4.06894355985053      1.03340036460553     -0.44705344239104
  O   3.82955294799759      2.19181428290690     -0.58896146831062
  H   1.59921000661389     -2.25885794473377     -0.16436782698834
  H   2.25488252699089     -2.43335305491515      1.47164436271263
  H   3.56858612798641     -3.42162220762325     -1.04404998170362
  H   1.88775426831218     -5.22783041853620     -0.53573488163280
  H   2.83233965826148     -5.51889656421120      0.93511033557944
  H   3.95705474751017     -6.86002582335651     -0.77770490092202
  H   3.71853244398608     -5.59279166433641     -1.98519123074693
  H   5.39794462579101     -3.54807590536789     -2.01185371126640
  H   6.92953040925426     -3.88943804048530     -1.20723728628190
  H   6.30517721070021     -2.86337185210482      0.79103268370894
