30
Coordinates from ORCA-job 3568optt
  Br  1.16345676493540     -0.17810650280498      0.42861476728145
  C   3.05757769865212     -0.10169141262777      0.23869412033522
  C   3.70764849752806      1.12703554809520      0.05939894452356
  C   2.85731091090927      2.37355377181987      0.08019950779592
  C   3.51064730174580      3.74496006493579      0.05998038140350
  C   4.26593533710065      4.05913085749294     -1.22317430342017
  C   5.53837471583464      3.22791336727239     -1.47696893746178
  C   5.99870450375410      2.29094978772742     -0.36117566782925
  O   6.33298325236023      2.93796905174539      0.86187085420035
  C   5.63261889111504      4.10481905242038      1.16892273735733
  O   4.25740968029524      3.92719180036148      1.26249022540368
  C   5.10088640171688      1.08313716596008     -0.11407800937425
  C   5.76577768095759     -0.13754724885571     -0.05981780094757
  C   5.09718635837857     -1.33918067950500      0.14421337383193
  C   3.71390261611125     -1.31549603610961      0.28367361904818
  C   5.81281298361932     -2.57674081430656      0.20184160828910
  C   6.41378926361533     -3.61303066198182      0.25256401682355
  H   2.24382826540819      2.33100602105228      0.98319101404235
  H   2.14878731382835      2.32616656078241     -0.75360248495883
  H   2.68477950652773      4.46020425415994      0.12179898821534
  H   4.51319285520424      5.12170720535706     -1.22963857193693
  H   3.55442286978333      3.91441871140591     -2.03759664943904
  H   6.37065218307508      3.89900223396179     -1.69873689065497
  H   5.40821945374751      2.60106375935601     -2.36017095569762
  H   6.94768114794261      1.87522324520682     -0.70314030556233
  H   5.87179955937991      4.89236687699527      0.44499208885406
  H   5.97196010943687      4.40545168689276      2.15719113057062
  H   6.84166357839465     -0.15948081496376     -0.17652826743545
  H   3.16290618980246     -2.23358944937790      0.42681264589993
  H   6.95008410883944     -4.53040740246814      0.30017882084211
