30
Coordinates from ORCA-job 3570optt
  Br  0.80832378811400     -0.44910905626645     -0.18687321574534
  C   2.70043944997616     -0.34661123500599     -0.13462908432895
  C   3.48706352497661     -1.44783143785113      0.19094515466466
  C   2.94615659381869     -2.78991166028143      0.59845525467931
  C   3.25481049508238     -3.91166047182215     -0.40442923272141
  C   2.32037917746421     -5.12895084832161     -0.21500203263814
  C   2.11139462741491     -5.67628381634752     -1.62741964341263
  C   2.32084404863629     -4.46516810044341     -2.52661542247430
  O   2.03784122493404     -4.36530454952498     -3.69479242564498
  N   2.91297519876362     -3.50337343097994     -1.76000854725917
  C   4.71870793758928     -4.36831205374253     -0.29755744763070
  C   5.76045955928971     -3.30085503059547     -0.56857938222105
  O   5.74091707881011     -2.24894235878669      0.40039462649846
  C   4.86636779635288     -1.23656935681324      0.13329225016100
  C   5.37225787505985      0.01887326574590     -0.17287626309367
  N   4.59687206282189      1.05984211118782     -0.44798716646945
  C   3.28462169150317      0.87782714805931     -0.44192093060183
  H   1.86914582747244     -2.71520194099616      0.72544067436633
  H   3.38372400513452     -3.05981065432114      1.56351948309343
  H   1.36722171395150     -4.78757880115256      0.19069289637098
  H   2.74342460345896     -5.85431956858945      0.47848124204861
  H   1.12744449456943     -6.10572615018335     -1.79993815016490
  H   2.85380343892434     -6.42831801112504     -1.90182842787336
  H   3.19020618258201     -2.62305267163095     -2.16772707406321
  H   4.88135412757318     -5.18447288322118     -1.00835669464680
  H   4.88660086817467     -4.76750527828314      0.70632322415631
  H   5.64081479287712     -2.87158337325871     -1.56864226133938
  H   6.75764432318725     -3.73412074320923     -0.50500101599299
  H   6.44616139138407      0.16619956710808     -0.18934449045500
  H   2.66202210010267      1.72883139065239     -0.69001589726182
