29
Coordinates from ORCA-job 3572optt
  Br  1.18869393217598      0.17029195236076     -0.18420761298863
  C   3.03801973536554     -0.08490372088882      0.01159934150012
  C   3.60996186348146     -1.31029926739599     -0.05094232294769
  C   2.78866319815951     -2.55723072617789     -0.25113506848102
  C   3.59711567241492     -3.82121859706364     -0.51906829020589
  C   2.75599772719986     -5.07791294590982     -0.34789949405066
  C   3.56888990444993     -6.30859653201357     -0.72519476605623
  C   4.96273179298749     -6.34324261301071     -0.12776083137616
  O   5.60504238480437     -7.36917595803263     -0.06582737244240
  N   5.48292140826263     -5.15254565715976      0.29417177448220
  C   4.79860589798888     -3.87893983509030      0.41245421668979
  C   5.74785460918789     -2.73780527316403      0.07172789963882
  C   5.03907853574517     -1.41033386849885      0.15342046760350
  C   5.71182471264084     -0.28202575772412      0.41977074678468
  O   5.14583904778756      0.93076707393586      0.47601363501263
  C   3.79851760154913      1.13518262211634      0.26925719238187
  O   3.37686013592350      2.24940673478367      0.32625427109565
  H   2.06976166057688     -2.39207107077546     -1.05543439884101
  H   2.18567923755030     -2.69546841254359      0.65472937599729
  H   3.98114731935061     -3.79390287831374     -1.54638571226383
  H   1.85078076386647     -5.01990609307883     -0.95558384345863
  H   2.43311671411722     -5.14329598784923      0.69636518511124
  H   3.70584489431288     -6.35490065047332     -1.80921545003127
  H   3.07922327765782     -7.23607469451810     -0.43292918983699
  H   6.39918517926240     -5.23793558458576      0.71240655901281
  H   4.43595574158344     -3.74043014558142      1.44191512866029
  H   6.12267419033746     -2.91166013667316     -0.94159625006398
  H   6.61236899824553     -2.73839576724244      0.73956960800681
  H   6.77564386301426     -0.24037620943143      0.61252520106669
