27
Coordinates from ORCA-job 3576optt
  Br  1.28665265939189     -0.38900566850853      0.36236258903352
  C   3.16600266978162     -0.16712157195119      0.18841922093682
  C   3.68424086000855      1.12060698841607      0.16293532929315
  C   2.98539418500703      2.44516104854579      0.23960201491257
  C   4.12703159603653      3.48067724538516      0.09123844164213
  C   5.47139422746264      2.69780674735691      0.07004701613190
  C   6.34429041796938      3.04347052487470      1.28581072803664
  C   6.49555043089336      4.54037786453992      1.41233058844569
  O   7.52151827986942      5.12463427147526      1.56699578179685
  O   5.33577535960640      5.23763327852945      1.30637800211688
  C   4.12343546586329      4.49607989362097      1.22513306374238
  C   3.02274806218226      5.53045375436353      1.08072588689518
  O   2.02786815663942      5.33252658723852      0.44727972912960
  C   5.05866648355030      1.25036665310836      0.05213062769347
  C   5.85537893193019      0.11929069014070     -0.03754011779631
  C   5.21779905772889     -1.11219959510308     -0.01131136813112
  N   3.89609762346950     -1.25420206635997      0.10315172799756
  H   2.45204914134329      2.55210044193947      1.18848149581804
  H   2.23055264265903      2.55727885145148     -0.53791482267364
  H   4.00771974807885      4.02942459448548     -0.84244438030685
  H   6.03878333299218      2.94194801358089     -0.83020995998434
  H   7.33858805886018      2.60944741553190      1.21529674428348
  H   5.87315030030526      2.66051422830166      2.19642660148334
  H   3.95405073167333      3.98675686141392      2.18509400232764
  H   3.20924264438776      6.48288853465553      1.60804349982030
  H   6.93196323474869      0.17900730854245     -0.13091119685347
  H   5.78605569756067     -2.03192289557540     -0.08255124579143
