29
Coordinates from ORCA-job 3577optt
  Br  1.16717880422680     -0.45713225321807     -0.26632009050931
  C   2.97626815097458     -0.09472107833646      0.12058910525249
  C   3.42473167630301      1.18164826335440      0.19403890683642
  C   2.71236715032801      2.48536418776478      0.00865043098839
  C   3.87133682095865      3.48208855201082     -0.20619699717568
  C   3.56335701062627      4.94188334023990      0.12927606545508
  C   3.43089249989770      5.33637664203579      1.61893783616705
  C   3.12265531133035      4.19689961068320      2.56469844798371
  O   2.10303261182012      4.10518115397954      3.18114070948389
  O   4.06378930736134      3.23723607584188      2.70694913020835
  C   5.27482301345238      3.28767773850475      1.95945818991227
  C   5.07123954604277      2.84312563665506      0.51923663744904
  N   4.73972184106012      1.41827967592297      0.46659149126607
  C   5.70977770569729      0.44573816225835      0.70381051983017
  O   6.85953284284107      0.77599412711737      0.95146645448459
  C   5.19803381685571     -0.90407201260834      0.61528038548301
  C   3.89489786223474     -1.15481493275181      0.33850479254145
  H   2.10924639496375      2.70228755451183      0.89427467967097
  H   2.03259397961463      2.45206072707396     -0.84214406198922
  H   4.10752888532762      3.44907387837301     -1.27215597104047
  H   2.62894663510514      5.19012777452128     -0.37647458379673
  H   4.32857111094358      5.57347686563830     -0.32499700969813
  H   2.62544049438768      6.05404370826518      1.74672723404998
  H   4.34605351573542      5.82068937131613      1.96200811427781
  H   5.96010119368816      2.60069105043472      2.45034578921543
  H   5.71524951121422      4.28513283147571      1.98604998101444
  H   6.01383992870023      2.99596487434308     -0.00771316229904
  H   5.91011881599380     -1.69959077181261      0.78062093939310
  H   3.53667356231481     -2.17471075359475      0.27834603554486
