23
Coordinates from ORCA-job 3582optt
  Br  1.10595167970253      0.06828901745664      0.00866859459942
  C   2.97832938058539     -0.01061542426173      0.00087276286601
  C   3.63729817321631     -1.18288792311574     -0.00146179734614
  C   2.88248912951207     -2.48839759288467      0.00047523115751
  C   3.77935204347554     -3.66103938352834     -0.00043336772946
  C   5.09915716137706     -3.62021596199147     -0.00320812064885
  C   5.89732105597967     -2.37408893483259     -0.00652816415278
  N   5.03228769612303     -1.18399850836721     -0.00592690141295
  C   5.76146767809275     -0.00815373853830     -0.00849146650580
  O   6.95684696166933      0.00868642823555     -0.01139754366819
  O   5.06720256589347      1.14692297754980     -0.00754471410407
  C   3.68467754783962      1.25977881622608     -0.00307253758156
  N   3.14291427463326      2.38908548477946     -0.00300774458218
  S   5.77077888202891     -5.23487312478768     -0.00198289601850
  C   4.11800070375879     -5.90931755830585      0.00276519528268
  N   3.73326592479167     -7.09730632504847      0.00601738256356
  O   3.20017958359133     -4.89378032388886      0.00264147319583
  H   2.21988029346856     -2.51332114464900     -0.86967982005298
  H   2.22301734675770     -2.51259236568769      0.87299369571030
  H   6.54663021876349     -2.32337083606522     -0.88291327867768
  H   6.55061894562073     -2.32126840133568      0.86676857316627
  H   3.83870723797715      3.13196080503596     -0.00640874303754
  H   4.49862551514159     -7.76249598199496      0.00585418697711
