24
Coordinates from ORCA-job 3584optt
  Br  1.41427963536021     -0.05122036472159      0.79667060444329
  C   3.23119450013903     -0.12252490986131      0.35181589822453
  C   3.75491182428143     -1.17205771695419     -0.32289932729249
  C   2.93784736454888     -2.35837193534856     -0.79231725831041
  C   3.76680546782750     -3.48242304640961     -1.43190524384436
  C   4.84506655200496     -2.82346427077975     -2.31818362262587
  C   5.79030548317064     -2.24956637985793     -1.24897220949946
  N   5.09552389758585     -1.11533535019850     -0.61151458166082
  N   5.90013065536492     -0.12846440330194     -0.21411897453290
  N   5.45495134744851      0.86225280092674      0.40704718484309
  C   4.07059114157447      0.99906439614911      0.73707637413572
  O   3.69252763686515      1.99386552709605      1.29818069876643
  C   5.85304669023051     -3.39514095110288     -0.27123200932076
  C   6.63628672569555     -3.91887853178957      0.70747758679456
  S   5.81230451426851     -5.26361785275825      1.36740101112090
  N   4.47374152098572     -5.14179167507070      0.41086815469862
  C   4.64348452573440     -4.12561776108910     -0.38524630491497
  H   2.20818345252042     -1.97923366404370     -1.51308593785603
  H   2.36478494976587     -2.73087298093732      0.05789817085989
  H   3.11888918670863     -4.18175126448428     -1.95411276359498
  H   4.45048505436102     -2.05038159975121     -2.97806608120991
  H   5.37524408987755     -3.56835214462321     -2.90982230342848
  H   6.73729569739527     -1.86512865511558     -1.61329631009453
  H   7.60611808628492     -3.60898726597265      1.06433724429895
