17
Coordinates from ORCA-job 358optt
  C   2.02385962097909      0.41633137944902      1.51492253661051
  C   3.06998837699086      1.15661383909627      1.18038606749786
  C   3.80221245354585      1.03756680463360     -0.12794240779604
  C   5.28471496740598      0.82690326177848      0.06658285606897
  C   5.84104752464737     -0.37296857301194     -0.09991069165340
  C   6.11700758115733      1.96818591388903      0.46501691010501
  C   5.69818231625436      3.22063459802548      0.62388600214442
  H   1.53107877987245      0.53317218121981      2.47130928779586
  H   1.62444644177020     -0.33322495981953      0.84073127741859
  H   3.45127014743835      1.89175299294084      1.88297075324652
  H   3.64520570731858      1.94525477167595     -0.71937743716080
  H   3.38595552575604      0.20614109548453     -0.69755401147601
  H   5.25304147281994     -1.23338645395951     -0.39412644349155
  H   6.90165152345869     -0.52596244108977      0.05818271905785
  H   7.16467026291166      1.73910476752521      0.63586032784431
  H   4.66574395107258      3.50992711283695      0.47012860417436
  H   6.38492334660064      4.00395370932555      0.91493364961353
