29
Coordinates from ORCA-job 3590optt
  Br  1.35611055907039     -0.09807001741010     -1.77026935015667
  C   3.01438655112009     -0.02218688796342     -0.89105926363643
  C   3.58261277574583     -1.12677664540005     -0.36895741409449
  C   2.91859690655579     -2.48265910140624     -0.44774862438752
  C   3.88795886154788     -3.58117352591709     -0.07739462417230
  C   4.68410295570850     -3.22367144583457      1.16221109078102
  C   5.39905475744167     -4.53366974428092      1.45099364845489
  N   4.34225242231408     -5.52938651515726      1.21033426476392
  C   3.31971942525436     -4.94968732948263      0.30803842804141
  C   3.02079900075596     -5.78955104529980     -0.84848634044544
  C   2.78086993026013     -6.47030030744350     -1.80457336414632
  N   5.53161310147100     -2.09600959624303      0.84805050283456
  C   4.85346787996060     -0.96894329328702      0.33730861888157
  C   5.36889015819384      0.26209665889019      0.44020070983094
  O   4.79408049578071      1.36168645001277     -0.10308310182536
  C   3.61071996103019      1.31098398488463     -0.78953859549597
  N   3.09492501787622      2.35258107645872     -1.27939756719064
  H   2.50533816021021     -2.63014941938393     -1.44582645415245
  H   2.06463138088964     -2.48166858507101      0.24027676941954
  H   4.61277862978016     -3.72251219280646     -0.88550267178182
  H   3.98380564307960     -3.00475862743177      1.98432940962564
  H   5.76552478724251     -4.60547104059641      2.47616082660526
  H   6.24861908592028     -4.62582244375984      0.76538325465761
  H   4.70404560243540     -6.39874536719704      0.84647031899895
  H   2.38896650271098     -4.80693473427958      0.86961865608383
  H   2.56169192928175     -7.07249409215112     -2.65375129368894
  H   6.17517086339464     -1.84956016696851      1.58772277876120
  H   6.29512415920395      0.49646676768227      0.94457362156775
  H   3.67514249576355      3.16638718684278     -1.08808423413375
