28
Coordinates from ORCA-job 3609optt
  Br  1.04041434403969     -0.30683741823963      0.21415237431289
  C   2.92252950731538     -0.11872292577697      0.13338361469861
  C   3.71625464698139     -1.21562489846628      0.01859831234062
  C   3.05605083220289     -2.59221307497736     -0.17139758052031
  C   4.20701367863731     -3.49402126598248     -0.53929387029771
  C   5.19941151927789     -3.45887650749925      0.63035274731611
  C   6.09971461346426     -2.35420107673882      0.16684146868587
  N   6.74435894689355     -2.82806267556406     -1.06712411742434
  C   6.69677558680317     -4.06189834537767     -1.72664999784171
  O   7.63547747780616     -4.35149892197617     -2.44737791837519
  N   5.65262323412293     -4.97396267279258     -1.61291264459373
  C   4.24946543663536     -4.85561845202850     -1.17759947289746
  C   5.18593288407393     -1.10769742206225      0.02355962411727
  C   5.80090002280526      0.08780959401209      0.03171548043616
  S   5.06692343744084      1.63161113550851      0.04825091326861
  C   3.33012255927700      1.28841879155976      0.18531569274302
  O   2.58692804985924      2.22848978406085      0.28394278774016
  H   2.31718071790114     -2.50248380785190     -0.96978504298417
  H   2.52086420407743     -2.88458391677086      0.73530353762905
  H   4.63793748448183     -2.91336472221859     -1.35401635734292
  H   5.74251933400060     -4.39221319128877      0.76010376806299
  H   4.70459196683031     -3.20503130151748      1.56824966220838
  H   6.88697525246514     -2.10096442692028      0.87978573555590
  H   7.61602026809333     -2.38390545659838     -1.31168834793715
  H   5.87679510526304     -5.77495468348381     -2.18266672530314
  H   4.01453908387451     -5.67046567740532     -0.48812531118913
  H   3.58545336093283     -4.92371015435448     -2.04302146155968
  H   6.88422644444352      0.14158369075071      0.05510312915104
