27
Coordinates from ORCA-job 3616optt
  Br  1.03316048892849      0.37973571722374     -0.16192113470959
  C   2.87262438245208      0.14039394667657      0.06888732308733
  C   3.45690146980771     -1.07640361088482     -0.00639870847265
  C   2.69661580225231     -2.34062425556479     -0.30328472283930
  C   3.63022544193441     -3.49623029436896     -0.63224965306537
  C   2.94410241822401     -4.85330589837041     -0.53642037900321
  C   3.90622058848594     -6.00592295428219     -0.65716048571902
  N   3.60077763925015     -7.06185369775122     -1.26364632688918
  O   5.08285867393455     -5.88340138597831      0.03329412331471
  C   5.74799212862761     -4.62615956079854      0.00168898014763
  C   4.80500279857189     -3.48347704811666      0.32276426533388
  O   5.56675591872460     -2.29480484963096      0.18399223826586
  C   4.88356051214843     -1.12411481347288      0.23223556987453
  N   5.60218713637417     -0.08883454663896      0.47391852032252
  N   4.97901961943087      1.09297380834497      0.49841618657386
  C   3.64061297714487      1.36014476712143      0.33809233281734
  O   3.19796704097890      2.48577991684833      0.41257636131371
  H   1.98964165501954     -2.15682892652254     -1.11374251193430
  H   2.09112010692714     -2.59069111362710      0.57566912834121
  H   4.03654860283588     -3.35893665754318     -1.64083322945659
  H   2.16734465176531     -4.97449165715224     -1.28830870082959
  H   2.46916780364353     -4.93912745568111      0.44762383745993
  H   4.35898042062258     -7.74149001061920     -1.20206836491652
  H   6.18067217354567     -4.45723389846304     -0.98972697438778
  H   6.55426741329646     -4.68652317470522      0.72879986333285
  H   4.44583063723713     -3.57131079877428      1.35719231960409
  H   5.57584149783574      1.88773845273161      0.67961014243363
