25
Coordinates from ORCA-job 3619optt
  Br  1.50577866117449     -0.38899138769836      0.14328399632192
  C   3.33781379116564     -0.23009973360378     -0.37132270123398
  C   3.97766663721175      0.99769518016566     -0.16462070846476
  C   3.16090771706018      2.17997148571719      0.43489340206289
  C   4.29392949793063      3.16321998407967      0.43274648095741
  C   5.37427844627401      2.72666633260592      1.44205244503806
  C   6.43010432776862      3.07076238578308      0.44386856050296
  O   6.32406964731255      2.04659774930403     -0.58466935188566
  C   5.36055942276108      1.01690864651966     -0.56718010781765
  C   5.90215860809297     -0.13829240679847     -1.12005761080478
  C   5.12291020367964     -1.26508067123561     -1.26963626165759
  N   3.84967883933390     -1.31602277957162     -0.89337414550381
  C   7.83794875410476      3.13052720734648      0.83349733296715
  N   8.93713591064551      3.21671170476984      1.14227519431987
  C   5.88089839882020      4.54709714304418      0.10663673720174
  N   6.49500211312593      5.55712425576652     -0.27870666259165
  O   4.53642865481618      4.58829874757338      0.44328357918246
  H   2.74876880561583      1.92068675852801      1.40996736193671
  H   2.34333215635387      2.43075756798062     -0.24047956695070
  H   4.59920612883214      2.98708486117274     -0.58511113694487
  H   5.38737071118589      1.68829963280294      1.75571761218869
  H   5.34776525238848      3.39336272153847      2.30025148776800
  H   6.93889208986045     -0.12690461027451     -1.42341187696785
  H   5.53535323320077     -2.16980531767314     -1.69967201212501
  H   7.48304199128448      5.36442454215711     -0.43223204749955
