27
Coordinates from ORCA-job 3620optt
  Br  1.32947735117213     -0.43200375348558      0.61446876879247
  C   3.18590345466740     -0.43073509280307      0.24634134891619
  C   3.89135868611691      0.76540576082239      0.30981636351255
  C   3.11069181717165      2.06311082462708      0.65846514715785
  C   4.26652661988230      3.02526562007903      0.64119112393906
  C   5.27565541033199      2.68130917572242      1.75941043879879
  C   6.41413718237909      2.79515570780020      0.79417873432622
  O   6.29850663803572      1.63873286673773     -0.07727712283707
  C   5.31066525887497      0.65861905292487      0.00850620127183
  N   5.85437985208191     -0.49805237768502     -0.32069627871619
  C   5.13519016489325     -1.60080450701658     -0.38299700283977
  C   3.77676245125870     -1.64973573266785     -0.09798255777129
  C   3.07235633804867     -2.88648513665004     -0.16094717938535
  C   2.51068186362281     -3.94357079996088     -0.22067532609410
  C   6.03858007277949      4.22543918747826      0.21311639804092
  N   6.82392131589961      5.13955351302355     -0.13654882142526
  N   4.61261731419544      4.41632236037041      0.32413705444791
  H   2.59396200374065      1.95623924148277      1.61345939776540
  H   2.36612373475284      2.24942264740520     -0.11683761350357
  H   4.65934441767264      2.66197486137705     -0.29320593089801
  H   5.19088598729041      1.70607333797264      2.23272286812318
  H   5.26970709017296      3.46153777146563      2.51908746105638
  H   7.44355758404257      2.79213491482556      1.14811480345151
  H   5.65521937593198     -2.50926082767453     -0.66447932197348
  H   2.00226940814197     -4.87670342774513     -0.27246354891763
  H   7.78866838777938      4.81494859245439     -0.12517742891937
  H   4.37185021906247      5.14910621911949      0.98327202368082
