27
Coordinates from ORCA-job 3631optt
  Br  1.22776474623281     -0.08391299321107      1.35090285622095
  C   2.90086581098315     -0.13129460049035      0.48488531259795
  C   3.59073253969761     -1.28659847091569      0.38265641375753
  C   3.15406474571085     -2.64856690536915      0.86076622590146
  C   4.01727541642122     -3.60712478517508      0.02775903951462
  C   3.40586826842730     -3.82515296615109     -1.35869397366290
  C   4.42655128147021     -4.35674021508791     -2.34883423475565
  O   5.51848943460712     -3.46147817685727     -2.45886819985529
  C   6.23415263227026     -3.37338644237877     -1.26258182015598
  C   5.36483229865111     -2.84397108137407     -0.10907178242860
  C   6.13620423152230     -2.98295789249365      1.13460175823521
  N   6.74425618344085     -3.10987860710603      2.09819425596451
  C   4.88572993475436     -1.40223004167655     -0.23679632766795
  C   5.53419097209993     -0.38614862052809     -0.81911085124102
  S   4.91510620490726      1.21012532752128     -0.90060695266722
  C   3.34009836972012      1.16192154013938     -0.04523444936923
  O   2.72831240553658      2.19265056239693      0.02697941809212
  H   2.08561119871516     -2.80956769250364      0.72153985369088
  H   3.36828020594490     -2.74249113252327      1.92982516372098
  H   4.17425056868889     -4.56555701717005      0.52443804646864
  H   2.56297205409304     -4.51394221642333     -1.27529798999428
  H   3.01593661706894     -2.87790283337234     -1.74260711579948
  H   4.00015461092042     -4.44873904375310     -3.34591247168572
  H   4.79439974552874     -5.34351344271271     -2.03593728295041
  H   7.08205349298422     -2.70946780827519     -1.43184149136387
  H   6.62665555903024     -4.35662524190221     -0.97199829658241
  H   6.50419047057232     -0.50744920260694     -1.28615510398482
