23
Coordinates from ORCA-job 3644optt
  Br  1.38360981679458     -0.10960873048448      1.47903880450661
  C   3.15084076509154     -0.16228453975109      0.85110488459172
  C   3.63409588611984     -1.20695412970933      0.14336262713998
  C   2.69135644719251     -2.37578024801723     -0.20651759350001
  C   3.65922383076865     -3.24335697400868     -0.94490916234670
  C   4.77150361171718     -3.73015296457865     -0.00886439065684
  C   5.89267352566062     -3.30585404487939     -0.88310563683181
  O   5.65139786083959     -3.87356393128749     -2.17960405596466
  C   4.53024862847561     -4.62306128856704     -2.49125884755683
  O   4.57064306350112     -5.44107506163925     -3.34041438903011
  O   3.38900381457676     -4.34593812613892     -1.79855636437030
  O   5.87574023776362     -1.87130767136997     -0.93690598612749
  C   5.07152989079554     -1.02311294126216     -0.21869173373633
  N   5.71777399643057      0.04772211375381      0.08168488791983
  C   5.15610929943303      1.09903057155981      0.74067748513863
  O   5.66212251594491      2.13410388185598      1.01057238710807
  O   3.81514796096724      0.92227093614338      1.17892534008301
  H   1.87468993700104     -2.01901304352546     -0.83493077031567
  H   2.27388713916589     -2.82363261347668      0.69619560726175
  H   4.05529714110767     -2.52413362229693     -1.65050665749345
  H   4.71419154561525     -4.80954498065220      0.11610540549893
  H   4.80308149337204     -3.25335246009802      0.96716577595068
  H   6.91283159166515     -3.57640013156995     -0.62856761726900
