30
Coordinates from ORCA-job 3649optt
  Br  2.12999729611707      1.65400874086718      2.94861547155214
  C   3.22767129939737      0.92779407417491      1.55974738255650
  C   3.66504074744015      1.74325279254261      0.57951126115377
  C   2.90270885796009      2.98948519975691      0.19917839679549
  C   1.56620223131987      2.46780073512476     -0.37279088190495
  C   1.32057575093800      2.18441091548689     -1.81238587043165
  N   1.59066278227705      1.11264647505831     -0.88477588139585
  C   0.54373483838046      0.17920511811465     -0.48800732586083
  C   0.77841704307914     -1.24788078542472     -1.02925995172373
  C   1.36513110619202     -2.29633422799641     -0.05801790423425
  N   2.83364856605917     -2.37473001298411      0.05719986755402
  C   3.46036007298561     -1.17416942065328      0.37545506059529
  S   4.51612959417393     -0.51774828912187     -0.83484933873666
  C   4.55877784527914      1.23398552164429     -0.46497331432478
  N   5.27606697877119      2.00847021752873     -1.16949012924087
  C   3.16554840624887     -0.50366318434064      1.51017656078398
  H   3.46169501420796      3.55674574698504     -0.54066745122341
  H   2.71213778993932      3.63240331837596      1.05533002352656
  H   0.68242467812039      2.74108596200412      0.19820874685317
  H   2.10022103392105      2.38351040699319     -2.53949198129531
  H   0.30203509914508      2.30099029012934     -2.17487122004063
  H   -0.43676689957203      0.54278783770251     -0.82488901890265
  H   0.51547160693987      0.15638071673412      0.60553901365586
  H   -0.18685339687412     -1.64607548660557     -1.35050918427030
  H   1.40265673279085     -1.18718846113253     -1.92532724480124
  H   1.04462123726022     -3.28899018385008     -0.37512379841305
  H   0.95270146752404     -2.14053766320568      0.94028234874620
  H   3.23984360722989     -2.82202526036721     -0.75336150702796
  H   5.80300413508023      1.52081689112160     -1.89086954722269
  H   2.58613447766808     -1.01443798466303      2.26641741727781
