25
Coordinates from ORCA-job 3651optt
  Br  1.01348187746086      0.94836044021875     -0.08994428374658
  C   2.82378100534575      0.43199412315557      0.03552009797058
  C   3.23902316231706     -0.78062278201553     -0.36185424044400
  C   2.41005325389990     -1.85676790002274     -1.01531017425447
  C   3.27240748212951     -3.11525270397963     -0.88900624260531
  C   2.99834789794629     -3.87619800558798      0.42595344156734
  N   4.27106049508806     -4.32293215033265      0.98709332554293
  C   5.12080206847342     -5.02704901081793      0.03800129922555
  C   5.32901209615705     -3.58565712302518      0.30553071554485
  C   4.73838655821616     -2.63741626052435     -0.72835669764037
  C   4.62139189267852     -1.19497940706425     -0.27828122000379
  C   5.64387826270697     -0.38556780373435      0.07834487338794
  Br  7.43947158549039     -0.95528536923796     -0.03268004194797
  C   5.50478352516242      0.99916685643390      0.52920362174911
  O   6.39845841662527      1.73559787758872      0.84555731261722
  S   3.84673599574990      1.66718014690440      0.65724657966627
  H   2.23132922038742     -1.58827687525473     -2.06005538714132
  H   1.43356233334366     -1.97265493052012     -0.54325914111483
  H   3.15453273857343     -3.76591790131983     -1.75255212728454
  H   2.32269315653053     -4.72095460341140      0.28681862377499
  H   2.54599364243265     -3.19876800588767      1.15535336182704
  H   4.70177928214350     -5.30554054498794     -0.92333488166554
  H   5.78731875029447     -5.75700733404635      0.47647869081010
  H   6.16327692118217     -3.25841019593897      0.90774644890246
  H   5.30643837966459     -2.67204053659177     -1.66221395473767
