31
Coordinates from ORCA-job 3652optt
  Br  1.15147398084366      0.24955345445354     -0.39002589834017
  C   2.99246428429636      0.01810127932257     -0.14768760855243
  C   3.59444352074859     -1.17333706796129     -0.11432607758531
  C   3.09328881014382     -2.57697271011586     -0.24539968677245
  C   4.37877362654855     -3.44232495347653     -0.30175931918733
  C   5.59109318191627     -2.51880710400687      0.05630449776585
  N   6.70604492958251     -2.67877215348499     -0.87296506446833
  C   7.05279633671981     -4.10188847425678     -0.92152718277055
  C   5.91090144688529     -4.93854227844396     -1.55869992379287
  C   4.67490002621154     -4.03975795057162     -1.68430529465388
  C   4.99486616725402     -2.90884310935700     -2.67001322122138
  C   6.32037138311130     -2.24330818758097     -2.22080594005169
  C   5.02311689839892     -1.11604098881018      0.06162938107131
  N   5.71586881218610     -0.04787741266995      0.20075127192344
  C   5.04643659843664      1.16874191666402      0.18731579392448
  N   5.54603946349321      2.30952829654355      0.33526815724480
  O   3.65372780474690      1.16124950958085     -0.02011035899663
  H   2.47770216520141     -2.70520307068611     -1.13890404719804
  H   2.46960721736752     -2.84708376353224      0.60877082195543
  H   4.30273654224568     -4.25938083256196      0.41700493225880
  H   5.96475543631806     -2.72910234743685      1.06258220123395
  H   7.25793819031081     -4.42951853973719      0.09916578209351
  H   7.97855377998365     -4.20277407044350     -1.48840813834744
  H   5.68350992822664     -5.81485148260808     -0.94902469374976
  H   6.20086286310397     -5.29951860968230     -2.54756807371256
  H   3.81457418919065     -4.61633841539381     -2.02883973503007
  H   4.18028925929528     -2.18064714665605     -2.68601144835134
  H   5.08331276754673     -3.30859523705446     -3.68131050721805
  H   6.24749728993299     -1.15624528016973     -2.23115678223412
  H   7.14007331689160     -2.51576049397038     -2.88663775824022
  H   6.54797978286140      2.20831722410420      0.47069392100306
