24
Coordinates from ORCA-job 3657optt
  Br  4.59423017505848      0.72769309463616      2.37191733641532
  C   3.64744158333390      0.17323575474383      0.86235560324833
  C   2.62471021980613      0.86783057289838      0.36617289196304
  C   1.97960930131115      2.14596471515965      0.80413349001367
  C   0.67252262136629      2.24328725679858     -0.03010361951989
  C   0.85963367042186      1.26144228980845     -1.25458960373150
  N   1.25193676319616      2.09833983369256     -2.42748503363569
  C   0.82622936192969      3.35899258861977     -2.04825188151758
  C   0.49287978031705      3.53113919912607     -0.76349131326068
  N   0.31584686452259      4.88327261293970     -0.52832002688348
  C   0.52174906726380      5.42115012512234     -1.67714638072011
  O   0.86026152258469      4.53906865089788     -2.67942937649904
  C   1.96898897548214      0.34561510777950     -0.81590869914240
  N   2.25623694064236     -0.73354704322172     -1.41991033562675
  O   3.31181166036702     -1.45312327753920     -0.90234682744329
  C   4.04206915374496     -1.08311304684277      0.21274667886324
  N   4.97904931568895     -1.81160110438042      0.62552499954079
  H   2.64183380761970      2.98734621310832      0.58388982471049
  H   1.79729313962715      2.15520436540770      1.87869469644417
  H   -0.17977396178752      1.93348255967401      0.57358347399342
  H   -0.05223759153243      0.70708614274094     -1.47591225888437
  H   0.91966202320430      1.74044238959450     -3.31319426453556
  H   0.44773935956080      6.45547825441714     -1.96484153397112
  H   5.08627624627077     -2.64068725518140      0.04391216017903
