22
Coordinates from ORCA-job 3658optt
  Br  1.12835857627158     -0.58052959939072     -0.06510837905900
  C   3.00560440257171     -0.44347988172208      0.02692335806144
  C   3.75884980712504     -1.55318883528826     -0.00784787475392
  C   3.37725730555058     -3.01446435596022     -0.08965824763099
  C   4.72913812066982     -3.65272142333403     -0.03592616790167
  C   5.67949542230096     -2.70988040069562      0.04846265611463
  N   6.95795017458480     -3.22338660485399      0.11655003781705
  C   6.88580579228698     -4.62831377779411      0.12330767787875
  C   5.44069998079591     -4.90449928486310     -0.00638697381954
  N   5.00367053855929     -6.13221517593127     -0.05844958159802
  N   4.66584644367430     -7.19448492736337     -0.10487413320907
  O   7.81729165582875     -5.38472382870727      0.22358380190455
  N   5.14799988380042     -1.41782778571942      0.04569589924784
  C   5.78840812916159     -0.18358641676897      0.02143914678875
  N   7.03553111196043      0.05522902036299     -0.09915833926718
  C   4.82886236937359      0.92206741140874      0.15084605171904
  N   3.55167418804457      0.80370405428811      0.14085149063109
  H   2.81846634933712     -3.20997053139914     -1.00917736960464
  H   2.72443086043639     -3.28333007193827      0.74537808112043
  H   7.80238137367028     -2.75115623820786      0.39205861333754
  H   7.59936418592473     -0.77197480280528     -0.26105126391416
  H   5.26791332807106      1.90973345668319      0.23854151613708
