25
Coordinates from ORCA-job 3662optt
  Br  12.57827550516230      5.88542024645453     -0.68770462545864
  C   11.55699315643592      4.31783123736489     -0.87178092142885
  C   10.21120823090169      4.32242680321336     -1.01652692884444
  C   9.14976131683690      5.38832329652295     -0.61738875983647
  C   8.39474607940051      4.44732436341888      0.39479999011822
  C   7.20127226113617      4.13662514050909      1.37185211067640
  N   7.53781461496996      2.67775430135458      1.67824318941172
  C   8.13570914825812      2.25266817196956      0.64501001508346
  N   9.16085098172445      1.29114682847897      0.40792660176782
  C   10.10338835520036      1.99625908902267     -0.39566575768744
  N   11.45045341726670      1.94961825660688     -0.27886102640176
  C   12.28250952835279      3.05161768413903     -0.64577369949098
  O   13.47808587394411      2.90291878951810     -0.62521398406315
  C   9.55056499075398      3.05198793366842     -1.04262892900145
  C   8.19759599638160      3.21492332955383     -0.49069403313447
  C   7.05607502296559      3.26751229011864     -1.38846121843683
  C   6.11934001497099      3.32630383523620     -2.13200363354171
  H   8.53084678848271      5.68049595139904     -1.46657154680613
  H   9.61379151597626      6.26518877653196     -0.17417033290483
  H   9.22485040503382      4.18777520964547      1.05677857965817
  H   6.22263910419025      4.23441583837490      0.90282240333211
  H   7.22038097894069      4.68038491490959      2.31177783900675
  H   9.50441725686662      0.75406071026716      1.19248932750744
  H   11.95538687514323      1.15859316504846      0.09583342197312
  H   5.28904258070419      3.36942383667278     -2.79608808149805
