25
Coordinates from ORCA-job 3663optt
  Br  0.88848549957462     -0.15755524012058      0.29949682414859
  C   2.78633579104251     -0.00737648768993      0.16488285314098
  C   3.40557947393885      1.20283974269556      0.49032926038039
  C   2.61683229740476      2.43756934238394      0.87778774715672
  C   3.05430852687558      3.64685128575156      0.12098866324996
  C   4.24787897372968      4.08872663211598     -0.33971229467653
  N   5.50017884344288      3.51065635903521     -0.22421719369388
  C   5.56703006602440      2.50481832873836      0.83048529716740
  C   4.80910347438115      1.25092060796943      0.45104508082325
  C   5.53890773513450      0.13336832456304      0.06427419173647
  C   4.90308469683966     -1.04086615083745     -0.27878262512251
  C   3.51730494155431     -1.12866506140218     -0.22971420039779
  C   2.90576387751630     -2.43233350732099     -0.62701264369497
  O   3.56959140539927     -3.39395239293162     -0.90787253027912
  N   4.01393990907478      5.26299107505746     -1.00364145951060
  N   2.79001881509326      5.53677613283276     -0.96237659360491
  O   2.13800600233043      4.54564234275462     -0.27270010169213
  H   2.70304467722250      2.61255434264108      1.95496624281843
  H   1.55895265634423      2.29200467565641      0.67790561327016
  H   6.23826608915682      4.19982793618679     -0.18561627993855
  H   5.17998052721630      2.90053093106602      1.77981543223698
  H   6.61278055504267      2.24640978613775      0.98148652777597
  H   6.61952630272295      0.19283039997798      0.03282535487464
  H   5.45405661724379     -1.91963910108176     -0.58822557484676
  H   1.80804224569370     -2.47493030417946     -0.66341759132219
