29
Coordinates from ORCA-job 3665optt
  Br  0.74106704055229      0.60293836176358     -0.12958520309400
  C   2.60608565612060      0.41647655587040      0.10951573524150
  C   3.13632381425304     -0.83691480708696     -0.15731794563177
  C   2.41698919668010     -2.07225936412008     -0.61644295002122
  C   3.52195334202493     -3.13275990901158     -0.82833099809122
  C   3.34671838629189     -4.36685281285393      0.05769494475018
  N   3.92915151448315     -3.91622487443654      1.31697597895450
  C   5.21295166410349     -3.33824089258207      0.93685833608479
  C   4.85162087308408     -2.50008152816750     -0.30782476995694
  C   4.49540455812372     -1.07592335939885      0.01110936004398
  C   5.34308743690924     -0.06924896615972      0.44226777281106
  C   4.81131947489285      1.18128316432607      0.70001579161492
  C   3.44767200122584      1.45436330526699      0.54149627624451
  C   2.96937492223032      2.83806085571567      0.83209254182306
  O   1.83704011099187      3.22189075940170      0.68608605109350
  C   3.97282879241442      3.78800487262963      1.33295170689606
  C   4.74292239287614      4.60837220677956      1.74428122345744
  H   1.84291020585395     -1.88084007519193     -1.52426334673254
  H   1.70343422259640     -2.39116144002252      0.14772662455501
  H   3.59235333665980     -3.40684075956342     -1.87923362601456
  H   3.89065330640622     -5.21997633470151     -0.37464533041405
  H   2.30223682526491     -4.65178204362775      0.18511498909764
  H   4.01937781966896     -4.65722286068881      2.00002500927273
  H   5.95024672774670     -4.10410483697076      0.65750806204698
  H   5.62941949179347     -2.73235021085106      1.74206289711996
  H   5.65788587495076     -2.54131794649838     -1.04079977253976
  H   6.40244580681971     -0.25124605746312      0.57534443030968
  H   5.45932074285281      1.98127128449470      1.03080701726724
  H   5.42220446212824      5.34168771314820      2.11050919381132
