25
Coordinates from ORCA-job 3675optt
  Br  1.04711375245410     -0.35468335635689     -0.12665370264364
  C   2.92449790144861     -0.27750429781472     -0.13194747293590
  C   3.55278477877782      0.88861575631844     -0.34749434196061
  C   2.93221196714888      2.24138990859914     -0.57141225960553
  C   4.10904668726020      3.21417656332959     -0.43467516430327
  C   5.39775224550285      2.43327578607713     -0.72223783032256
  N   6.39463162308583      3.00231416354267      0.16230330281872
  C   5.79633987288651      3.51246112518918      1.37628608446848
  C   4.32237753612283      3.68352838457021      1.00787845995819
  O   3.47440324745616      4.08426168142345      1.74691195251479
  C   7.66541999746034      3.24525937797271     -0.25052144400627
  O   8.10804416921742      2.92600738660832     -1.32571809422876
  C   5.00447053296796      1.00008629459692     -0.38506310323555
  N   5.86316742247538      0.08651229761627     -0.16084023674092
  S   5.39760637156342     -1.45762946442047      0.18156076517486
  C   3.62394010634650     -1.54849872479309      0.10518458016740
  N   2.99937950323688     -2.63716323761260      0.26696221305846
  H   2.14271310631769      2.45484648672911      0.15070031035629
  H   2.48449823869764      2.28944568389268     -1.56659986380531
  H   4.00580862520943      4.10211993378394     -1.05992268862088
  H   5.76324053247312      2.49597970670758     -1.74724026421155
  H   6.22958525782774      4.46270342628274      1.68963434454185
  H   5.85771166559859      2.80875927528495      2.21265793251309
  H   8.25770293100390      3.78089343966948      0.50940084433530
  H   3.61555192746015     -3.43415759719677      0.42084567671334
