25
Coordinates from ORCA-job 3676optt
  Br  1.19109767936184      0.40056909502258     -0.04980857244756
  C   3.04941661151677      0.15419774477866     -0.18308706309122
  C   3.88050980948882      1.15155478192512     -0.59310069203556
  C   3.37825478683390      2.51901119143213     -0.96876347004578
  C   3.35039958226226      3.51575541484634      0.23581465295554
  C   3.89402214200549      4.87387571431436     -0.25953925511179
  N   5.31679474108505      4.55829514143505     -0.52168350835931
  C   5.57572270780665      3.57287349039614      0.21231951946917
  C   4.50046846572913      3.16202761157170      1.18627031611886
  O   6.65843083901415      2.75994316542217     -0.06425306139267
  C   6.35566577130108      1.79486434534450     -0.97513480191633
  O   7.01540117353194      1.57226879326733     -1.92022340236560
  N   5.24028454009503      0.90067013451527     -0.60700373152080
  N   5.77869296140679     -0.28478735254856     -0.27088481982087
  C   5.00604243580904     -1.24067733363399      0.09505013040678
  C   3.54458486748988     -1.16195526228570      0.18598504553402
  O   2.85985483009609     -2.09918038711035      0.53772821301054
  H   2.38191586832080      2.41273516735616     -1.38854750264905
  H   4.01812567567373      2.91659668760945     -1.75771330801536
  H   2.36980305922035      3.54766080836962      0.70677658652584
  H   3.79076022884843      5.65526907500923      0.49784155114973
  H   3.44020166433161      5.22678020087975     -1.18461363653103
  H   4.51208832750397      3.82454055857536      2.05490712501799
  H   4.55114732600120      2.13345686011526      1.53011878907889
  H   5.48631390526590     -2.17434564660764      0.36154489603560
