27
Coordinates from ORCA-job 3683optt
  Br  1.66639711371032     -0.72991202760902      1.76910684199075
  C   2.77154798672706      0.02781796716254      0.44320474084608
  C   3.52517233217706      1.13034169377885      0.71938658331800
  C   3.18302719952973      2.16091334877373      1.77569577949294
  C   1.74386899842464      2.50565063428632      1.43923314495599
  C   0.62526147017440      2.50530655292003      2.21877642888708
  N   -0.42665788052283      2.30487084611645      1.35358758116650
  C   0.09203066332314      2.16967518251221      0.09765773025337
  C   -0.62473504104050      1.61705550202152     -1.09506203787463
  C   0.32273274949558      0.84280700357605     -2.03173207817028
  C   1.05987134304262     -0.39526461471171     -1.44597132854800
  C   2.45699310549146     -0.06596666947771     -0.95756094864286
  N   3.30286811076756      0.34420414418937     -1.84829832100377
  C   4.48452765682019      0.87839137089590     -1.42891147688177
  O   5.53341047763045      0.91103356559587     -1.98268512837174
  O   4.37551633079289      1.57583209969406     -0.19342942866799
  N   1.37680644921775      2.36101806437804      0.12350824106834
  H   3.88084778852456      2.99056055257680      1.67432901345493
  H   3.24938521062981      1.75426984589069      2.78366121603869
  H   0.48770141418918      2.55919948714287      3.28461632712612
  H   -1.39015914515019      2.18420923258499      1.61539241237681
  H   -1.42318489768764      0.95752887491441     -0.74276909955336
  H   -1.10572605716619      2.41142447878520     -1.67167085196749
  H   1.06827406324347      1.52633191904629     -2.43750655180407
  H   -0.28047331903163      0.49974073144967     -2.87316650482166
  H   1.17929880994631     -1.12278826100709     -2.24914455231581
  H   0.46839706674075     -0.86325152548633     -0.66124773235218
