28
Coordinates from ORCA-job 3694optt
  Br  1.18038305776633      0.89498681838141     -1.88590679801462
  C   2.92673157120764      0.63479131318726     -1.22809063014666
  C   3.26453684263382     -0.46129106621119     -0.52804265993997
  C   2.14493066390383     -1.55862292332411     -0.22030547769225
  C   2.95228714118647     -2.71617630800749      0.41709135275414
  C   3.12923244995934     -3.96473451435134      1.32594677970039
  N   4.65803858320233     -4.02995637331853      1.46234844549245
  C   5.62947531733592     -2.84671007188951      1.61300934038846
  C   4.96749741219505     -1.83134620788494      0.64204824245130
  O   3.71331257974568     -1.90125681734594      1.26926594163842
  C   4.70499046809034     -0.48192912613513     -0.02066504709992
  C   5.49694996200637      0.55249080725797     -0.26092539342140
  O   5.10697015945951      1.64713673758201     -0.95731539982220
  C   3.85175568647298      1.74858670201080     -1.50652131126341
  N   3.53454881982498      2.75500087745260     -2.19290909484303
  C   5.23149749635153     -5.26275028753215      1.45589292377871
  O   6.41220530061511     -5.49251807494010      1.58667901500901
  H   1.62767382069915     -1.81669634229846     -1.14272857622701
  H   1.43094199116025     -1.09890976746910      0.46375408508188
  H   3.51527887413704     -3.05312697847451     -0.45413565984396
  H   2.80978628713599     -4.91417431529708      0.89934083014617
  H   2.67506577984445     -3.81534211415717      2.30349263193836
  H   6.60620839698181     -3.22784052550764      1.33021504010373
  H   5.63043141078872     -2.49790472160373      2.64277485060850
  H   5.01300774309680     -2.44917187900809     -0.25622362477903
  H   6.52041650941951      0.62889406237186      0.07422664614539
  H   4.31392141435230      3.40637086968458     -2.25902133922265
  H   4.49792426042667     -6.07379977317225      1.31770488707919
