27
Coordinates from ORCA-job 3702optt
  Br  2.72249217131778     -1.54547455649409     -2.17522877127940
  C   3.17160654668451     -0.13870297920158     -1.00175272630352
  C   3.14300183761344      1.17118198981286     -1.34491609862630
  C   2.31440822973700      1.75827763259903     -2.48284106841063
  C   1.03841184731140      2.07988908986072     -1.73620143493758
  C   0.10673781896889      1.20311189905230     -1.24049630240964
  N   -0.24845535610539      1.52048044092961      0.04757521705340
  C   0.47243677722882      2.58024412588380      0.34461317556284
  N   1.16091566076347      3.02749055153288     -0.72773273433292
  N   0.62525227251494      3.15853831120034      1.58698960691513
  C   1.96776344128153      3.58836149455024      1.97371644405136
  C   3.06277729220560      2.51154207700795      2.20228058215208
  C   3.33630713364207      1.56441457547921      1.06741194082162
  N   3.32540403086326      0.29368744640067      1.31389478702299
  N   3.41181563887525     -0.53487555840860      0.27123342699773
  C   3.57415212131520      2.08890305936490     -0.29037173733490
  O   3.94157794056643      3.24074481831407     -0.48367419912565
  H   2.14530450093649      1.03455601390207     -3.27578404199399
  H   2.79679614142493      2.64224004929648     -2.89764441773586
  H   -0.25894184677388      0.30334257156825     -1.71014277187150
  H   1.85834434619506      3.75422844161354     -0.72486129519013
  H   0.11946522733343      2.63774721312840      2.28937450207500
  H   1.86851926986599      4.14168333693291      2.90688149282351
  H   2.32800400954444      4.30597201118711      1.23718524514269
  H   2.81285039076135      1.90575499654987      3.07387194825157
  H   3.97653176896014      3.06839101884124      2.42834657588580
  H   3.41952078696783     -1.51473007090420      0.50527265479631
