26
Coordinates from ORCA-job 3703optt
  Br  2.51532944578333      1.41677653109068      3.50636371579896
  C   3.36619034398471      0.92750974109070      1.87665989195754
  C   3.86076938046546      1.84955694205190      1.02917936139900
  C   3.36551574231685      3.29521121538436      1.00340052818402
  C   2.17442421826449      3.17067487133911      0.08192538514929
  C   2.04855600832818      3.55459344131111     -1.20075267846974
  N   1.10371022794130      2.73961160931335     -1.82011908170433
  C   0.81319027720340      1.66953086996637     -0.98097181979297
  N   1.26544298249672      2.10924264152785      0.24762354278846
  N   0.33800355130591      0.54717483071487     -1.34938415371109
  C   0.35248582239283     -0.54603488656652     -0.40099593054495
  C   1.65356167284984     -1.39953992331595     -0.49541496058229
  C   2.83021472482579     -0.59369351060128     -0.03548324031845
  N   3.56120726681209      0.01333830003812     -0.88643203557016
  S   4.55815686567367      1.29197971599167     -0.46696089314998
  C   3.02245575139169     -0.44889703293943      1.45542311992245
  O   2.74838679728372     -1.35140339086200      2.20499549749975
  H   4.08765715600307      3.97845037394496      0.55827128694238
  H   3.12453155422897      3.63355999901438      2.00865503497960
  H   2.60839669190618      4.29233743441711     -1.74819165673328
  H   1.03287132095339      2.62223558391324     -2.81639574972191
  H   1.15894556592797      1.58044559635299      1.09349340958055
  H   -0.47671729580323     -1.21474308192105     -0.63287124666831
  H   0.20490788741634     -0.23835927370012      0.64494306689912
  H   1.54026090807235     -2.28498595914031      0.13013390786790
  H   1.80354513197495     -1.68557263841614     -1.53509430200154
