28
Coordinates from ORCA-job 3708optt
  Br  1.48957937715700     -0.05734599318549      2.15587234591676
  C   3.06454786024214      0.13105405698070      1.14857809258958
  C   3.48848298589710      1.29747532361870      0.61343908823437
  C   2.67098204235587      2.56737481899380      0.70530332760418
  C   2.85867798321752      3.56216277004655     -0.44355398613294
  C   2.78497136100858      2.82308767542519     -1.81707124592979
  N   3.54649523119902      3.44497269460806     -2.87169926847059
  C   4.79140299055903      3.20928067409064     -2.90747151355715
  N   5.59885625721696      2.49028468666637     -2.04263174301626
  C   5.55444912682895      2.37388780116550     -0.58859594664841
  C   5.24571368220201      3.68408608854181      0.14311888315601
  N   4.03722594795242      4.37943310123835     -0.22988343188146
  C   4.76330556055985      1.16745892179358     -0.06495896857108
  N   5.39328139941831      0.04784538002772     -0.21933095693878
  C   4.87416681501314     -1.12886924203770      0.25485238114967
  O   5.31337562537254     -2.21953046608296      0.10371430326055
  O   3.70457854586334     -1.01819656176849      1.04186045251580
  H   2.86251020683937      3.08330356137322      1.65049089851186
  H   1.62084176944893      2.27673000338639      0.72289117535090
  H   2.01171216897595      4.24901904559417     -0.40842798398349
  H   1.73737358510775      2.80301466332352     -2.11961852281868
  H   3.09876978444208      1.77858730521540     -1.71497542246276
  H   5.34762383044887      3.57103607381886     -3.77225715201166
  H   6.50853161449307      2.29543985885735     -2.42360283350703
  H   6.57342453704275      2.10355948218063     -0.30792749752738
  H   6.08484239823059      4.36250609838133     -0.01364548052795
  H   5.22583489921630      3.45598626473060      1.21526615609970
  H   4.19244241369053      4.96935591301617     -1.03673515040393
