23
Coordinates from ORCA-job 3709optt
  Br  3.47967336401874     -0.04313176370735      3.27898890207063
  C   2.69561593178117      1.07427666133787      1.90647339704583
  C   3.57849425704811      1.72043975658239      1.07388826454005
  C   3.32614784011011      2.99028495457588      0.27023885597573
  C   2.19100041345696      2.74246457763419     -0.65394254478743
  C   2.01582568163259      2.39845098980914     -1.94908229725924
  N   0.79039863118335      1.75244174993293     -2.09159892843204
  C   0.30363928889952      1.76100319434654     -0.90413154806182
  N   -0.76657002709749      1.08762227482090     -0.35287874564515
  C   -0.57759836500254      0.25093531662595      0.73835582354128
  N   0.49235220324664     -0.05315684402020      1.33537702730051
  C   1.79292723440424      0.25466443050315      1.02908033819005
  C   2.56415246736805     -0.35689967502641      0.09492453544827
  C   4.05544761146109     -0.19580413420416      0.02989751185708
  O   4.79875162868955     -0.92334440826811     -0.52870018948129
  O   4.62877638598386      0.97850244039950      0.65165908319808
  O   1.03982561189066      2.41506626708619      0.00215013976886
  H   4.22890384279879      3.21942669970332     -0.29268840683454
  H   3.10546792541658      3.81412680181885      0.94915460231263
  H   2.69701496371670      2.50972060648094     -2.77489636706425
  H   -1.60614614191017      0.98098460204897     -0.89848386802027
  H   -1.51187454831385     -0.16313848668800      1.10848160929001
  H   2.19677379921732     -1.14993601179251     -0.54226719495300
