23
Coordinates from ORCA-job 3712optt
  Br  1.26234442170733     -1.07600434776266     -0.85150972826880
  C   2.92674028642454     -0.37585976762828     -0.33470429825296
  C   4.03843979893359     -1.14962245307593     -0.27493808903172
  C   4.21005209149927     -2.53337891533416     -0.55268751616738
  C   5.52480675704644     -2.85014431784789     -0.31406052159415
  C   6.22518314480413     -1.66530586171997      0.10785888022750
  N   7.54928023464536     -1.60106871960373      0.52749132325913
  C   8.49615711979019     -2.56598277809707      0.46632951934706
  N   8.53255509748540     -3.69193347262667     -0.13349212390417
  C   7.56481006411611     -4.34575238206039     -0.87182207963149
  O   7.86983526790812     -5.13956590579123     -1.72538656254916
  C   6.07938102671647     -4.19007731240386     -0.55063092850164
  N   5.30578437378149     -5.19058959508655     -0.59116195732568
  C   5.34309675077674     -0.61131897559312      0.14278058302771
  C   5.51346064320029      0.74672589198006      0.50640486790645
  C   4.50189492717618      1.64062604073038      0.49344446594468
  S   2.87511735782561      1.28778452974533      0.04888984475828
  H   3.45780398669175     -3.22257099932120     -0.89872184770642
  H   7.81901314108509     -0.76646018542538      1.02353989048081
  H   9.38663083581947     -2.28446143683197      1.02671558765444
  H   5.83551509525550     -6.01833688568951     -0.87351922363388
  H   6.49206387677185      1.11075481666404      0.80065292705659
  H   4.64203370053903      2.67754303277979      0.76452698690480
