27
Coordinates from ORCA-job 3714optt
  Br  1.21812121262461      0.11289374394184      0.00651093196819
  C   3.07958999111034     -0.11512735485882      0.21450737854164
  C   3.68517708051945     -1.32291939142157     -0.06170292286880
  C   3.11539103489823     -2.62701755126444     -0.53418937676366
  C   4.21498124800446     -3.61496569337544     -0.13953496984370
  C   4.08837103780433     -4.16649354314380      1.28571045295838
  N   4.75859807126010     -5.43930198286384      1.10305745645308
  C   4.57831534461722     -5.86081581509992     -0.21121424904876
  N   4.72260555689675     -6.98309973747460     -0.75678372339956
  O   4.19627722425100     -4.77907093078392     -0.94331860044016
  C   5.54307765175059     -2.80024569171784     -0.27644312381506
  C   6.06050213957882     -2.81187561963223     -1.64217764262909
  C   6.47041163005662     -2.80820953796367     -2.76635627422750
  C   5.06315449369289     -1.41544872771969      0.10900777277174
  C   5.77659185020442     -0.31683889658960      0.54648741407146
  N   5.18267531463699      0.84411786060267      0.82154092107488
  C   3.87075746673403      0.94308125589718      0.65602708976300
  H   3.00427659852048     -2.62372424135469     -1.62221252770666
  H   2.14770307532067     -2.86798675157433     -0.09563861961422
  H   3.03594285763296     -4.27864505106797      1.56532139678502
  H   4.59089960033945     -3.53737481726981      2.01991355072965
  H   4.68387136720441     -6.14607963538194      1.81639127572657
  H   4.99090721132569     -7.69332900828648     -0.08364825807133
  H   6.30280439427801     -3.19375115926884      0.40297586855316
  H   6.83243094392083     -2.81742296002855     -3.76663701789812
  H   6.85169659748315     -0.36037077951266      0.68291881114440
  H   3.41486900533342      1.90002201721304      0.88248698578546
