20
Coordinates from ORCA-job 3715optt
  Br  1.22912124465226      0.27288749148122      0.50410860831938
  C   3.06310464589181     -0.06710432665761      0.27783062526096
  C   3.53400267629598     -1.31431888594442      0.07462621660039
  C   2.84591995651740     -2.58547336180715     -0.01346950067860
  C   3.72168268628135     -3.59601266712408     -0.21083965609320
  C   3.37789925147656     -4.99895039737341     -0.34654687656885
  N   4.19044603568924     -5.97247359128354     -0.31060386860265
  C   5.55364697623859     -5.74345602935143     -0.07137883951653
  N   6.23379259112188     -6.33350049922752      0.79445394346169
  O   6.23521520245285     -4.89114176401680     -0.94257047544880
  N   6.18780845012042     -3.53789645763784     -0.70296535547814
  C   5.07999143555658     -3.03759021832328     -0.33222927761542
  C   4.95665668266469     -1.56243710625419     -0.11326336805703
  N   5.94474238077117     -0.75175449305078     -0.10990648407999
  C   5.76945785198455      0.60243597694557      0.08709391123669
  O   6.63836119998463      1.41474959125910      0.10647578447909
  S   4.08486547637750      1.30163858373654      0.34685059257736
  H   1.77304990473146     -2.69429509614472      0.06344528052285
  H   2.32145775360113     -5.23056548254200     -0.47121195362584
  H   5.65277759758990     -7.00474126668360      1.29510069330664
