23
Coordinates from ORCA-job 3720optt
  Br  1.03099580276804     -0.43541981323851     -1.13633963471912
  C   2.83024203809782     -0.15316263386134     -0.62894484894984
  C   3.45974954484919      1.01888039597844     -0.81655092822794
  C   2.80005459182965      2.29032687596741     -1.29860541955123
  C   3.15511018491923      3.40567215043072     -0.37177976646082
  C   4.41288621739395      3.90532745452063     -0.13474148199478
  N   5.56502098119482      3.45575158214902     -0.79756317408356
  C   5.76048840088420      2.16657363126923     -1.19965324541917
  O   6.59859285630814      1.84934916453994     -2.00508864649839
  C   4.89996943878139      1.07565240966630     -0.54397984340865
  N   5.59225337003468      0.23833077977254      0.12449637757420
  C   5.02122500994353     -0.86253663266106      0.75412634638710
  N   5.52025795661183     -1.47471830793295      1.73465296420896
  S   3.53144356206735     -1.56777290148060      0.07237688720684
  C   4.24350447902249      4.89335824687285      0.85520037385457
  N   2.97169103422833      4.99119160389496      1.20041040917056
  N   2.33719700381261      4.07449712955416      0.46566679112000
  H   1.72255868736338      2.16467255888332     -1.36879589371085
  H   3.16425428573481      2.53804476365198     -2.30140265056539
  H   6.17650016898595      4.12583475843747     -1.24406154643671
  H   6.42401058827482     -1.06214279542158      1.97013354422003
  H   4.98304375202084      5.53173228251988      1.31094164087109
  H   1.34595004487292      3.94955729648716      0.58550174541312
