25
Coordinates from ORCA-job 3723optt
  Br  0.99069232008775     -0.21159869884844      0.10740645849179
  C   2.85020814968907      0.00223024829343      0.04968291915371
  C   3.45074622439176      1.09315897999144     -0.43453031959927
  C   2.79062018947760      2.32616944253892     -0.98665970958133
  C   3.46173313606380      3.54574448985869     -0.41179576284905
  C   2.78677950431779      4.60094876432582      0.09551357676981
  N   3.45037101592535      5.65910007943105      0.62966450016669
  C   4.83881707746082      5.76584849878686      0.74354711533867
  O   5.33839862074434      6.74104930764452      1.26847052822609
  C   5.54983747730183      4.62519153999133      0.20027416177709
  C   4.89442037114075      3.57532993304244     -0.34699761086328
  C   5.60245498639924      2.36083027795179     -0.88740508841336
  C   4.91097420568991      1.11717108890865     -0.39412574486939
  N   5.64490320237785      0.17555938532809      0.04937220370726
  O   5.01427259369856     -0.95661703802825      0.51096720201919
  C   3.64948427613092     -1.10623434265650      0.58263671028266
  N   3.14588460988156     -2.14565154842062      1.07856333973919
  H   1.72445794331732      2.32129807190727     -0.77231637433227
  H   2.90103306019347      2.31031478358502     -2.07817341675162
  H   1.70608401243958      4.65653965231463      0.10761935859312
  H   2.93724682765633      6.43973996958808      1.01411612600023
  H   6.62824782205428      4.65421911016281      0.27531176655002
  H   6.65271547816060      2.33625866920183     -0.60795136292347
  H   5.54192582505199      2.37656931551323     -1.98213242389923
  H   3.87069107034743     -2.78716998041215      1.39594184726674
