21
Coordinates from ORCA-job 3727optt
  Br  1.51242013299296      0.21871344092268     -0.33416210638377
  C   3.30100179096052     -0.34505717877622     -0.20136883678319
  C   3.58947700654100     -1.67512227393796     -0.00089564785363
  C   2.86293980715450     -2.87215043871055      0.16254355499638
  C   3.79103612880021     -3.88805816754440      0.35017021586134
  C   3.51337319874946     -5.30531892937583      0.52926198347735
  N   4.29870825191749     -6.24647621770802      0.18842611883573
  C   5.48553153590291     -5.95809404637283     -0.48166144255629
  O   5.71193104699624     -6.28379899658641     -1.60871561956653
  C   6.57799744838711     -5.24458166892584      0.33427823744613
  O   7.60042193748568     -5.74364026709299      0.66301721231950
  O   6.31155150401372     -3.94735900806342      0.64684344887866
  C   5.11781374823047     -3.34687276150341      0.32148667356688
  C   4.99943199806792     -2.00540096143744      0.10773764793775
  N   5.90680671655381     -0.98645330581691      0.03331882019636
  C   5.48932558438110      0.26663050376387     -0.17420712122466
  N   4.23076903642738      0.61118040776644     -0.29649896070986
  H   1.79205134690674     -2.98134201133345      0.10625585276586
  H   2.56615561111682     -5.58239194607186      0.98809114620277
  H   6.89437548657793     -1.18431448796987      0.12812273221858
  H   6.25488068183596      1.02790831477446     -0.24504390962537
