22
Coordinates from ORCA-job 3732optt
  Br  2.55336394360046      3.15416342841082     -3.01772825905363
  C   1.34893059483177      2.57870582996569     -1.70298048455760
  C   1.69186304173993      2.31835763402546     -0.43201845757798
  C   3.08817665601803      2.31894135585615      0.11821414087181
  C   3.56961437390960      0.90320621532946      0.13384673807821
  C   3.18094623271348     -0.05863242218026      1.02422527584189
  N   3.64913217289113     -1.32262258254926      0.77417285037820
  C   4.35606325523681     -1.33214013694278     -0.30529110992287
  S   4.53689776782522      0.19201411462947     -1.08397723827578
  N   2.50027127709730      0.16601090281561      2.21160034655877
  C   1.54944356178646      0.92983068078589      2.47366175662728
  O   0.71934994233711      1.71869137930916      1.71499597473979
  C   0.57479463164627      1.85633800978076      0.36862583322353
  N   -0.61442347164783      1.69185952261608     -0.05739075459296
  C   -0.90574001139024      1.94476121508098     -1.38438248490247
  N   -2.00316305186950      1.78709308346732     -1.96513712774942
  O   0.12366398228135      2.44859655741470     -2.18950415643621
  H   3.08547122638921      2.71057491463995      1.13788040622805
  H   3.73422963982548      2.95922979283489     -0.47725409975453
  H   4.82540889349584     -2.21738689018508     -0.70930980238263
  H   1.21535387880056      1.04021276425588      3.49964211441094
  H   -2.68464853751845      1.43719463063908     -1.29789146175241
