23
Coordinates from ORCA-job 3736optt
  Br  0.61931825449287     -0.67583419653073      0.29467021208443
  C   2.45215816457478     -0.27146758828546      0.26316515389071
  C   3.34273283005062     -1.28074005317905      0.17021306234559
  C   3.10517286651002     -2.78012642403523      0.07665319461021
  C   4.50936981974445     -3.29821190933184      0.00262371424508
  C   5.32968283023907     -4.39121501311128     -0.09532065488379
  N   6.59678976267678     -3.90349895297875     -0.10028619309170
  N   6.67312799615388     -2.55940432529429     -0.01291028731965
  C   5.41001082808799     -2.22967992515906      0.04698796743713
  N   4.71323004060922     -1.01929603102955      0.15021539943930
  C   5.11159639492893      0.26332450099555      0.21689568298895
  C   4.25544958975523      1.30220954910771      0.29969394264723
  O   4.99463077426588      2.45802349647295      0.44132550178314
  C   6.30513083635995      2.07925551375969      0.08190706259894
  O   6.39784595983651      0.65050164952421      0.26365742681560
  C   2.82318621013559      1.16309447371242      0.35427667388219
  O   2.02207207571793      2.06986031263344      0.46936135272556
  H   2.49905860560774     -3.01119257193774     -0.80121386525982
  H   2.54950318224534     -3.12486222905790      0.95092516338888
  H   5.14093358569760     -5.44920050690263     -0.16015353811668
  H   7.45126888752749     -4.42910965391367     -0.16224963765920
  H   7.02713720748427      2.56349021766524      0.73210831723742
  H   6.48459329729780      2.29507966687597     -0.97654565178952
