26
Coordinates from ORCA-job 3739optt
  Br  1.22007335482397     -0.17178175012215     -0.18745918999448
  C   3.09390123175023     -0.21086223647724     -0.08315755940661
  C   3.78005166743528     -1.37481592741676     -0.06790021326006
  C   3.22303543370690     -2.79416996652749     -0.11920407933843
  C   4.49978362793489     -3.57400705597174     -0.07928521010952
  C   5.61500128570389     -2.78664457855826     -0.01153699487453
  N   6.72109216037035     -3.56548460027243      0.01786551365738
  N   6.33622386220294     -4.79991670343877     -0.02998925511396
  N   4.99131785228344     -4.82121627021078     -0.08911553599950
  C   5.21830113757574     -1.38695994474462     -0.00259341941253
  C   5.87600741425951     -0.20726320432862      0.03678983126965
  C   7.33763556275088      0.11132506527155      0.12721314936060
  C   7.38903125407717      1.57742984571082     -0.33061647218840
  C   6.02191850287913      2.14105541128753      0.06454481886233
  N   5.16162989703756      0.95652769516649      0.01303559203628
  C   3.77767678141008      1.07963899780141     -0.02094661593189
  O   3.24972306241284      2.17493487698875     -0.00400162586891
  H   2.63715243014000     -2.95017573297113     -1.02745640870974
  H   2.56269754408169     -2.98415973443883      0.72982837935917
  H   4.52637442292114     -5.71308395121698     -0.12990516862215
  H   7.94148068068545     -0.56629044108392     -0.47315788045345
  H   7.66132952692999      0.00731946525875      1.16648683921525
  H   7.49867588843060      1.61960973263875     -1.41451958002131
  H   8.20920455733835      2.13326622837613      0.11689497721628
  H   5.63181274752623      2.89904482542160     -0.61001994115007
  H   6.00786811333169      2.54967995385793      1.07720604947861
