24
Coordinates from ORCA-job 3742optt
  Br  0.89120358535189      0.10981250322622      0.27029721907176
  C   2.74914647771578     -0.00080788913949      0.07133308744762
  C   3.39222686438909     -1.19057247002589      0.04780426270951
  C   2.62685850188838     -2.48926655072163      0.16577846771189
  C   3.51308713813859     -3.66443015494379     -0.02049418893233
  C   4.86661335199178     -3.60940473610876     -0.13722945672220
  N   5.23263189953423     -4.89283880676637     -0.31823979382265
  N   4.16800492574330     -5.69622444672590     -0.31795206313936
  N   3.12406556021383     -4.96302162269450     -0.13525554791562
  C   5.72883578962785     -2.39860545022348     -0.06331409302698
  C   6.74664377459927     -2.40236740474743     -1.11736118858110
  C   7.58321917516276     -2.46834414413367     -1.96996447124547
  C   4.84255524460706     -1.14898134955667     -0.09327287668833
  N   5.49313077278073     -0.04609148539200     -0.20131248221145
  N   4.81837408700743      1.09628878657064     -0.19275692756836
  C   3.44863734356249      1.27809893124019     -0.05655066340589
  N   2.85312902650333      2.40194331387928     -0.04343455472062
  H   1.82342968189518     -2.49817113899745     -0.57364286322687
  H   2.12902254977542     -2.52051682509514      1.13959831689878
  H   6.14927549981007     -5.27110438599344     -0.49921471613013
  H   6.25513762776584     -2.39154026876653      0.89872314018538
  H   8.32467212624292     -2.50794548824793     -2.73202803072182
  H   5.39801677753360      1.91538555997982     -0.29460327950412
  H   3.49508221815910      3.18470552338394     -0.14590729646164
