24
Coordinates from ORCA-job 3749optt
  Br  3.81041633220099     -3.81095527545273      1.44138580740675
  C   2.40244307891483     -2.82674430956397      2.17535295915395
  C   1.11432900214699     -2.97794164199583      1.81175426661402
  C   0.66733167906621     -3.81827207898470      0.69437224786208
  C   -0.62419784196793     -4.09877176870155      0.61954939568254
  C   -1.69126903020620     -4.43674182692486     -0.38189354122802
  O   -2.59043800785027     -3.54883836959000      0.33038077449638
  C   -1.69557860242153     -3.47466412883727      1.45518247141578
  C   -1.21274828797912     -2.10855389394790      1.88449514585568
  N   0.09764332598796     -2.32681251399039      2.53962284880728
  C   0.33941576895728     -1.91952352035650      3.81605164459141
  C   -0.79158040900521     -1.89268241193322      4.83037785335199
  O   -1.82429375653920     -2.47538627991563      4.68664030463295
  N   1.48459592725386     -1.69961629491179      4.34770210114169
  S   2.81424659367085     -1.61112679622943      3.37925385280183
  O   3.95499019202381     -2.02979602802496      4.11715150553043
  O   2.79305560599125     -0.32211043877823      2.76125725909582
  H   1.39776809765126     -4.11531094004907     -0.04389697176005
  H   -2.05321124269212     -5.46698150919309     -0.35278174050191
  H   -1.51931045363841     -4.12301117099655     -1.41123916139407
  H   -2.06276773461271     -4.05583767771915      2.30563857083060
  H   -1.87550873100065     -1.59651496599890      2.57067795316553
  H   -1.04986378418978     -1.48688926139741      1.00220151700600
  H   -0.51846772176215     -1.34891689650683      5.74676293544132
