19
Coordinates from ORCA-job 3752optt
  Br  1.23463387172380     -1.01375424856927     -0.06319932686601
  C   3.05913452386602     -0.56495978066668     -0.06023468543935
  C   4.00382968196397     -1.51517253916446     -0.05407989661437
  C   3.78676489319771     -3.01569644430110     -0.04967415361424
  C   5.19967608845781     -3.50469509559491     -0.04510041751383
  C   6.08485904278881     -2.49409754346387     -0.04621973025800
  O   7.38870433236847     -2.86820043896580     -0.04241869045539
  C   7.42355858630689     -4.25990161781972     -0.03864362916860
  C   6.01165581494948     -4.68308608906655     -0.04040752549444
  N   5.68614261780478     -5.94999774588999     -0.03940302357393
  N   5.43620532763718     -7.03453151323755     -0.03834700388085
  O   8.43067050472334     -4.89012870015391     -0.03589573285962
  C   5.43636759283406     -1.19950089726068     -0.05215972011221
  N   5.98964514014434     -0.04455752980927     -0.05575307782765
  S   5.08196356699460      1.32781582713252     -0.06260379574153
  C   3.36138453074265      0.87973873552883     -0.06514975790791
  O   2.53433953389668      1.75164767392396     -0.07075455151407
  H   3.21715715870638     -3.32667852232861     -0.92908093905302
  H   3.21330719089297     -3.32124353029292      0.82912565789502
