24
Coordinates from ORCA-job 3755optt
  Br  3.39632109295138     -0.30050275939263     -3.24225868926499
  C   3.91596008354987     -0.05992542236491     -1.44728885282076
  C   3.23808554014715      0.79154587693267     -0.64736256555371
  C   2.05029725072023      1.62335771131670     -1.05156696723802
  C   1.48296090640855      2.17140134147179      0.26028044256333
  C   2.62071213466336      2.06226682647526      1.32409843631251
  O   2.02404643497267      1.60410656654886      2.54242637956977
  C   0.85566491435772      1.01194851367212      2.18286334034273
  C   -0.13736481853857      0.24579491554907      2.70990501593347
  N   -1.09597247990329      0.06566929567001      1.73132881757783
  C   -0.68938375109603      0.69882567532070      0.66643380365417
  N   0.52064471149695      1.29370051884441      0.89589863358393
  C   3.56681742700211      1.04721665111164      0.72401606186510
  C   4.56879590354313      0.44100760724788      1.38006643536542
  S   5.61720832476527     -0.70402826961765      0.66304802546802
  C   5.08258776181673     -0.84548316247515     -1.04500438308995
  O   5.71238154444896     -1.58213759259771     -1.75360360854817
  H   1.31463565773512      1.04148247493693     -1.60715161091958
  H   2.37559649647216      2.43525246973783     -1.70706508659430
  H   1.07704740861249      3.17727253303612      0.15626071480720
  H   3.10905778500500      3.01065313796912      1.54156811643979
  H   -0.23060987956899     -0.17762541082779      3.69337421941094
  H   -1.20273029417537      0.75409045920393     -0.27968044948122
  H   4.76523984461336      0.63911004223079      2.42741377061646
