24
Coordinates from ORCA-job 3756optt
  Br  1.14018154899907     -0.35373295215946     -0.21566855844404
  C   3.00504793038995     -0.09718475743429     -0.08334391976908
  C   3.61905509257748      1.07385170322230     -0.52057454328381
  C   2.86268412209314      2.23405313541257     -1.11717257561195
  C   3.24844751528639      3.53275161996744     -0.47865598359391
  C   4.42592490837629      4.03025760840684      0.01850632497217
  O   5.65494444819616      3.46551946978976      0.01499954327385
  C   5.78116491398061      2.35782189392396     -0.85616490682971
  C   5.01010438588023      1.14631668163794     -0.39670835779254
  C   5.69223343611049      0.07082345422035      0.15815724947657
  N   5.10671851982703     -1.03909096075692      0.57835281269425
  C   3.78793400661615     -1.12039236838955      0.45958708917354
  C   3.18559140443992     -2.34720751606703      0.92902063336570
  N   2.71359636692789     -3.32208846477581      1.30300934611668
  N   4.26318494158179      5.25678346490145      0.57305614586371
  C   2.99284405706665      5.53171236263680      0.42319043265059
  N   2.33475525823518      4.53148729401142     -0.20544626954297
  H   1.79380293158782      2.07887956334850     -0.98585202796687
  H   3.03862607241805      2.24658972613760     -2.19899920451506
  H   6.84352044021642      2.12416577194064     -0.88168221602733
  H   5.46611501157322      2.65212230902207     -1.86370215682289
  H   6.77097870326767      0.11247143203883      0.26444794801837
  H   2.50227296053814      6.43490082600803      0.74717878777232
  H   1.35227102381419      4.50518870295651     -0.41953559317761
