23
Coordinates from ORCA-job 3758optt
  Br  1.17974181612322      0.05344455200194      0.05876245354257
  C   3.06921783039316     -0.05159277212530      0.07023258724955
  C   3.68342455779141     -1.28446685139269      0.07289311761483
  C   3.07245615161622     -2.67353815295891      0.07032354300965
  C   4.29721510628487     -3.53874383259925      0.07506811899827
  C   5.40497202463968     -2.75790155665651      0.07964192895366
  O   6.53884886997048     -3.47756845543100      0.08342819249961
  C   6.13167709515692     -4.77883954296365      0.08122584486906
  C   4.77560049904198     -4.88204281474395      0.07609429684122
  C   5.09374612855627     -1.34713463059593      0.07875706024075
  C   5.85543561899858     -0.19119760025556      0.08209699440161
  S   7.59965028867439     -0.16237443733654      0.08804054455293
  C   7.76763267462846      1.60587664483376      0.08861821266642
  N   8.84289646838303      2.25736727700585      0.09112460313853
  S   6.22171939835346      2.46318752338974      0.08571005672023
  C   5.20109077861370      1.04553993038275      0.08054241350326
  C   3.81533443520113      1.12364742673818      0.07454186448307
  H   2.44231593205787     -2.82057572297238     -0.81031062419684
  H   2.43539085639390     -2.82071205645859      0.94597057091262
  H   6.91927037434812     -5.51137497634674      0.08395042655747
  H   4.21843635983837     -5.80367848796958      0.07360456775568
  H   9.67176202041444      1.66788928469356      0.09298302326299
  H   3.31616471452032      2.08278925176081      0.07270020242286
