26
Coordinates from ORCA-job 3759optt
  Br  1.18863742096094      0.21741434378010     -0.13415559694725
  C   3.06308927913579      0.00687037130855     -0.10216283553221
  C   3.67269207547312     -1.17658036007300      0.15038494200475
  C   2.90067491858523     -2.44647001310886      0.44374503330633
  C   3.68215463451683     -3.63702039986802     -0.00206023305162
  C   3.31802773385750     -4.84205987155069     -0.49468748124206
  O   4.41630055122013     -5.57957088265491     -0.78366640265693
  C   5.49941367844360     -4.82668977142194     -0.47791561169835
  C   5.11020732731065     -3.62730066584122      0.00914837810510
  C   5.86885229237663     -2.43016015190524      0.47277426696479
  C   5.11631372336441     -1.15315992211426      0.16162818482365
  C   5.81072446482035      0.00104337492127     -0.07018876659398
  C   7.23356040740287      0.04841137325088     -0.04209025113890
  C   8.43071720821159      0.13921835785243     -0.02363785446008
  C   5.12997404106073      1.26896891815031     -0.34652833233904
  N   5.62047454960327      2.41999768429671     -0.57819371279343
  N   3.74126709443979      1.15136064847382     -0.34330625683353
  H   1.92877312708701     -2.41674659513271     -0.04514152015154
  H   2.70696645494753     -2.50881128680147      1.52082379647630
  H   2.36727223403354     -5.30386506004315     -0.69706515074653
  H   6.45968629933554     -5.27510128119197     -0.66463788482575
  H   6.86591246880639     -2.38659218903871      0.03860129478785
  H   6.00547229582971     -2.47100882311070      1.56043099802345
  H   9.49196200466432      0.21231886883779     -0.00340243197768
  H   6.63534552144147      2.38923012768348     -0.55696566394412
  H   3.24052819307103      2.00930320530154     -0.52673090755924
