23
Coordinates from ORCA-job 3762optt
  Br  1.18535502000226     -0.39069950582940     -0.21410309575740
  C   3.04122162574685     -0.09512644796073     -0.11872295518300
  C   3.64755213786373      1.02867558180980     -0.54530589147194
  C   2.93058986820278      2.17639165843016     -1.19974622652332
  C   3.10355885730230      3.42149999206376     -0.39768607764732
  C   2.19042807452314      4.24370923522772      0.16172390761873
  O   2.80992947609013      5.27227760290696      0.80086729050898
  C   4.12884930452211      5.11270445927707      0.64259856956294
  C   4.37828711533955      3.99010043593393     -0.07816286195557
  C   5.70774209868945      3.50952748026184     -0.46226798955874
  O   6.68204192549333      4.22162972128858     -0.50289817241915
  N   5.84299911481769      2.15748605005171     -0.79766104302788
  C   5.08694357875239      1.05780642439676     -0.37399467242619
  C   5.74459666954451     -0.01517227668118      0.13182953711370
  C   5.05386443539603     -1.19653788148397      0.56570617070207
  O   5.51279739039666     -2.18333391686580      1.05152449894297
  O   3.65737297910613     -1.14137639912718      0.41542090392781
  H   1.87794758562697      1.94229187564473     -1.32935925846976
  H   3.35758739748804      2.32832556378237     -2.19607056860619
  H   1.11481038914928      4.24105122990328      0.19150649716275
  H   4.77720061262847      5.84822367242431      1.08586450329835
  H   6.82402489629663      1.94808636377582     -0.93778930894868
  H   6.81629944702153     -0.01654091923056      0.26772624315685
