28
Coordinates from ORCA-job 3771optt
  Br  3.56373673028670      1.94266850497953     -3.38763369767474
  C   3.29545212352567      1.01198280711268     -1.75895748134656
  C   3.89074171490919      1.50464052586456     -0.59981520871115
  C   3.93435782464287      3.01009220498000     -0.30186530363607
  C   2.56142108808458      3.13545747856841      0.35729892482260
  C   2.31650986566739      3.04937335387291      1.68700201420727
  O   1.12455332184361      2.43962808877599      1.92540552218049
  C   0.58609516497448      2.12011918338059      0.71493416580759
  C   -0.55448373134763      1.14999996103935      0.70209497136614
  C   -0.43745136749350      0.02174003838855     -0.35579502330639
  N   0.64829494665103     -0.96417455080998     -0.19913050375627
  C   1.94129114635030     -0.46765423917473     -0.41993592953764
  C   2.84330311033311     -0.28668801697906      0.63174074426519
  C   3.81855023895914      0.67947842162515      0.52738822016726
  C   2.34193833609432     -0.00800602731910     -1.68259001220453
  Br  1.40538066700504     -0.61160064426982     -3.20656841482077
  C   1.37382366880660      2.60939150774609     -0.26743864716654
  H   4.04912560060907      3.61129477300743     -1.19951055604918
  H   4.72352348223937      3.26697352511062      0.40450837782638
  H   2.91057483357542      3.27702233568866      2.55580295951364
  H   -0.62857856740349      0.71444045821637      1.70162585618045
  H   -1.50441613554855      1.65968937448977      0.51504367716928
  H   -0.34351560604847      0.46528592531662     -1.34631827916509
  H   -1.37437510630513     -0.53627526402132     -0.35330208414134
  H   0.58468961002372     -1.43299585062840      0.69532406022042
  H   2.65084011187933     -0.76203401300043      1.58650481516175
  H   4.35204867399923      0.97717209913654      1.42269212322462
  H   1.20856825368659      2.48897803890300     -1.32550529059680
