22
Coordinates from ORCA-job 3773optt
  Br  1.13651711299786     -0.76430237924727     -0.32639876932154
  C   2.87697836459896     -0.22089534002362      0.07394931707517
  C   3.94734658933550     -1.03914846176656      0.00157530702526
  C   4.21597979189938     -2.39026607511940     -0.32025078993570
  C   5.57522559016930     -2.58245272331547     -0.20272612085359
  C   6.21009819417277     -1.34176084451336      0.20141696276019
  O   7.51374652372290     -1.00068803955348      0.40640978125145
  C   8.52789479466938     -1.85520275590864      0.45963937333775
  C   8.61321911413505     -3.18033987568495      0.26690057079516
  C   7.65092724520309     -4.20116644302794     -0.12632323339888
  O   8.01208453644401     -5.35231586190403     -0.23716113197878
  C   6.18844374079330     -3.89861893776251     -0.45294050559542
  N   5.47002947087895     -4.82073747147179     -0.93509103240212
  C   5.22901538947671     -0.41108393924038      0.32796967328157
  O   5.34754852138230      0.87529258840423      0.67231619679215
  N   4.24810280540060      1.66045909916344      0.75462251400705
  C   3.10125608797757      1.13917862587685      0.47275307563832
  H   3.50351828236582     -3.14852819170293     -0.59607213250211
  H   9.42844250863831     -1.30919458879432      0.71145672394074
  H   9.60770258140604     -3.58549914166670      0.40054373865390
  H   6.03968277748919     -5.66848198967392     -1.01703233723820
  H   2.27223997684293      1.82875274693280      0.55944281866765
