23
Coordinates from ORCA-job 3782optt
  Br  3.41947718137184     -0.05387483098574      3.49898980309098
  C   3.05021483897934      0.91167234641700      1.91859372801895
  C   3.55072440309651      0.56867396425306      0.72105098915964
  C   4.61327932840451     -0.49722902987320      0.48873126253180
  C   4.25727369027034     -1.81015955504472     -0.17139881621708
  C   3.79536041245417     -2.25979464825968     -1.38249088763401
  O   3.29398788988513     -1.51850350547503     -2.44032888679420
  C   2.71848775682888     -0.44263776877453     -1.82654122446020
  N   3.39061070813356      0.58387323567503     -1.59770003788011
  C   3.03001229346060      1.29823698323930     -0.45449355512986
  N   2.36200136310776      2.38233655904935     -0.50564474268762
  C   2.04546486937209      3.09190923170733      0.64238032407195
  N   1.68367563568413      4.29831494744887      0.68391075452333
  S   1.99775732877393      2.25043892001472      2.22095776221418
  C   3.84323102949172     -3.68220929246220     -1.37898583030536
  C   4.35515666904455     -4.01092852232721     -0.17336057628133
  O   4.60291291654343     -2.90756323095338      0.55877774081887
  H   5.05208694657548     -0.76285790464020      1.44810603891291
  H   5.40200953077963     -0.02742275862915     -0.10392002851098
  H   1.72298233948367     -0.64705942318715     -1.42316279951618
  H   1.64635554951751      4.67658564922851     -0.26281005618750
  H   3.53747159820736     -4.34037283990521     -2.17330515608327
  H   4.58646572053382     -4.95242852651574      0.29264419434509
