22
Coordinates from ORCA-job 3789optt
  Br  1.16973502728662      0.12546950206503      0.00602481323909
  C   3.03572876656567     -0.05310705228578      0.00317391522209
  C   3.63502665897771     -1.27283327150304      0.00218562939456
  C   3.18832874364020     -2.62407592671886      0.00251298504174
  C   4.32732190019611     -3.39369355210990      0.00166019804145
  C   5.50407971826227     -2.58031137470684      0.00057434619205
  O   6.74950703279737     -3.11171605367058     -0.00010134680712
  C   6.87802678677307     -4.49304549962896      0.00184759487922
  N   8.02689731338678     -5.00656444040581      0.00350792797537
  N   5.75034941984030     -5.31629282785823      0.00200597981721
  C   4.56388213988776     -4.82215210291135      0.00183514201306
  C   3.43413629299296     -5.71040849438143      0.00257085472354
  C   2.46183487078656     -6.40965620862212      0.00268588668685
  C   5.10341285818866     -1.28858790767010      0.00070236387769
  O   5.83562326843138     -0.15000099606122      0.00008964905782
  C   5.18687074179060      1.00928546983011      0.00075320506312
  C   3.83789621145504      1.12425803384636      0.00229906536159
  H   2.16585376739511     -2.96371222905922      0.00341993463634
  H   8.73653482309116     -4.27654903866673      0.00341270415985
  H   1.60862603249002     -7.04619286154904      0.00294106711656
  H   5.86004415324408      1.85393693322687      0.00004716606051
  H   3.38928347252052      2.10494989884086      0.00285091824741
