21
Coordinates from ORCA-job 3790optt
  Br  1.07235657159254     -0.25839329021280      0.24278039021446
  C   2.94119618027725     -0.03520890798249      0.10646255470401
  C   3.47781258497185      1.16883136461644     -0.18592290769553
  C   2.64453407614077      2.39196661340061     -0.47311857683052
  C   3.42728682234020      3.63779820372182     -0.21514452217736
  C   2.91907115151660      4.82526799623595      0.13285455737748
  O   3.66566484489094      5.91900670964803      0.27841895848039
  C   5.04542220680134      5.88903821485857     -0.02138111601797
  N   5.69771087902515      6.95876767616255     -0.02356626564497
  N   5.61401951422889      4.65621329901557     -0.26815008157914
  C   4.86018263102254      3.63700418863672     -0.35128856623376
  O   5.49077546030379      2.45582768373452     -0.58035135599934
  C   4.92304561848021      1.25014965702506     -0.30281758471193
  N   5.79807750725282      0.32232334575322     -0.20281372595789
  C   5.52233307879914     -0.98854672594546      0.06319517548253
  O   6.32995298806900     -1.86346736389770      0.13979310167081
  S   3.79893352905759     -1.49725836641835      0.35657158251952
  H   1.73859032619395      2.38248151224614      0.13086542100774
  H   2.32456849897914      2.35697975124933     -1.52073624597815
  H   1.86897359152673      5.00882264365855      0.32437586502550
  H   5.09949193852946      7.75339579449361      0.18597334234411
