25
Coordinates from ORCA-job 3793optt
  Br  1.27086651692152      0.11231886088752      0.33576056817504
  C   3.14461876529022      0.05487204557353      0.13153429454412
  C   3.87838963730529      1.07294863170319     -0.37369843518051
  C   3.33773678855842      2.41256699401562     -0.77904068500638
  C   3.62990553985005      3.56151090663366      0.22943253952284
  C   4.11540691144230      4.83004650451585     -0.45750731940575
  O   5.50798112000540      4.55515915730469     -0.60376746229874
  C   5.90100560142694      3.84801083000508      0.54173576018391
  O   4.72011830457627      3.31082895646858      1.11175672498507
  C   6.74923062072610      2.61294442849812      0.19269467779702
  O   7.67736170165579      2.26127181803897      0.84278882448381
  N   6.12640156966261      1.85996447943033     -0.84467062637346
  C   5.30873564146630      0.81158667828709     -0.36897104377735
  N   5.88642834820782     -0.24595821694965      0.08456411975786
  C   5.12964147408380     -1.27393189283548      0.59949897594833
  O   5.56045754390498     -2.30172343408378      1.05067175221568
  N   3.72819392869992     -1.07994163902837      0.56414985811260
  H   2.25883056783168      2.34629157538999     -0.90885161306043
  H   3.72978593441639      2.68641299483934     -1.76253224543217
  H   2.76002363844565      3.72541979127658      0.86335139693421
  H   3.96354716191089      5.70917448566239      0.17312016577712
  H   3.69552915446829      4.99851471218197     -1.44677688142951
  H   6.40978207711164      4.47651962394059      1.27501031894680
  H   5.59837414956031      2.50520723851883     -1.41594573935639
  H   3.17464730247132     -1.83901553027468      0.93469207393631
