26
Coordinates from ORCA-job 3795optt
  Br  2.80441515873370      0.48911383197587     -3.30425313387596
  C   3.06950210946054      0.33099060711513     -1.44014780739437
  C   2.77308997083537     -0.79498359479877     -0.73422818746297
  C   2.11789692614188     -1.98890173338559     -1.56194342194759
  C   1.35201718939698     -3.13657443564363     -0.80647917432887
  C   2.15138993485415     -4.40436678779963     -0.26163836686586
  O   2.64269668744389     -4.07123084994250      1.08710391490070
  C   2.58472014579636     -2.69376882588878      0.87106731426310
  O   3.10637159333161     -1.63967276425486      1.62370784170931
  C   3.18932470655552     -0.61467567018383      0.71181978937323
  N   3.65119197187009      0.46643254583746      1.22252107779402
  C   3.86128362360610      1.59402472778841      0.47505309275712
  O   4.25722333609585      2.65116586713290      0.89143898200253
  N   3.59714240051565      1.44623028962947     -0.89705702410050
  C   1.08447338183084     -2.47809778723091      0.53091863066722
  C   0.17226053364708     -3.15801856727909      1.43495166856527
  C   -0.60787179475984     -3.70304178336293      2.16071719374918
  H   2.89560637951294     -2.40268489356808     -2.20980932003472
  H   1.38702912376255     -1.52158517018860     -2.22068994692669
  H   0.48444071440518     -3.45341720172911     -1.38158899193282
  H   3.00763500600708     -4.65784584266935     -0.88971554978327
  H   1.48428896507469     -5.25528073180773     -0.15524273558462
  H   3.20667151012788     -2.62490176068153     -0.00659871738291
  H   3.78114597158331      2.25621649716655     -1.47153728380192
  H   0.79393859119820     -1.43377888310645      0.44290689206290
  H   -1.29088413702767     -4.18234708312439      2.82072326357853
