27
Coordinates from ORCA-job 3800optt
  Br  1.19903975653980     -0.74748921115961     -0.60598118429209
  C   2.92843441151779     -0.16906376363437     -0.17907186645248
  C   3.21283645318625      1.14979276242178     -0.05950118517852
  C   2.34276341088728      2.36362369238670     -0.18010878377184
  C   3.36922049967960      3.49891047630321     -0.33492873657002
  C   2.86640899223226      4.87681746994011      0.04451756914005
  O   2.47523551020575      4.99516279475311      1.41252213310437
  C   3.43442970508598      5.45317543090212      2.26846194583859
  O   3.27134037876664      6.42942599634380      2.93790743075133
  N   4.57255839117814      4.68837186506332      2.26761930704322
  C   4.54384661444008      3.27265407815977      1.94990682795985
  C   4.58966808835449      2.99669536977597      0.44747677832362
  N   4.47635521624964      1.55383677264547      0.23896538413783
  N   5.49428736214987      0.74278503855308      0.49297513203630
  C   5.26840303190775     -0.52471529329771      0.38684139052830
  C   3.97975775941871     -1.14978225531050      0.03170838389965
  O   3.85158223830856     -2.35546229608526     -0.05413559151213
  H   1.75116782892474      2.48196478408066      0.73232444949530
  H   1.65055031434620      2.28883604700497     -1.01668751570973
  H   3.65747193152860      3.54853816733388     -1.38869826116402
  H   1.97276097830316      5.10879912545901     -0.53434138378098
  H   3.62167074215698      5.63313930057023     -0.18211710975050
  H   5.24860080924119      4.99684733004998      2.94844725826257
  H   3.65534060317532      2.79725026270173      2.37597854723177
  H   5.41587598784889      2.80363588192679      2.40377301181802
  H   5.53201974580243      3.35448424141885      0.03303552794946
  H   6.10337323856384     -1.18623406830712      0.58211054066206
