27
Coordinates from ORCA-job 3810optt
  Br  2.34960557315171     -1.68119905369097      0.75689265547257
  C   3.52594918269411     -0.30300900587984      0.25084567298791
  C   3.35109285429292      0.99982893244991      0.55019325992855
  C   2.15314548326474      1.53157306322435      1.29159161642438
  C   1.07749762738022      2.00954230280204      0.35216848894254
  C   0.03408815255770      1.23653957780846     -0.06352018200220
  S   -0.97744730473184      2.06244121994807     -1.16176262298580
  C   -0.01066779845928      3.46527817256586     -1.07559204745801
  C   1.05448796058386      3.31363534772713     -0.23675746342580
  C   2.04556567311483      4.40563642777594      0.04546104898600
  C   3.46321533892799      4.19391675493961     -0.50617904759787
  C   4.41386445545781      3.33108588264250      0.34810200810407
  C   4.40536169142050      1.85543091163995      0.04931162304126
  N   5.40874249427900      1.42755631457911     -0.65279303232317
  C   5.54133415131340      0.09817953590950     -0.95595949375081
  O   6.40499137746546     -0.41129967235714     -1.58856550640282
  O   4.54708996189027     -0.77181099837573     -0.43778046729617
  H   2.46256147635865      2.35031432744431      1.94359908846323
  H   1.75514881111627      0.75168271980660      1.93825112961776
  H   -0.18503266477879      0.22077145528095      0.22583813812074
  H   -0.27926289891307      4.34720592878092     -1.63590705041139
  H   2.10972000701939      4.57657079404447      1.12554050589272
  H   1.65061444530802      5.32852145132757     -0.38200461620963
  H   3.93142340300943      5.17625993481291     -0.58267566562376
  H   3.41298235218992      3.79595006893514     -1.52210875870538
  H   4.20182893760482      3.49742598649787      1.40696672038520
  H   5.43609925648192      3.65197161936045      0.15984399782588
