25
Coordinates from ORCA-job 3812optt
  Br  1.02716244971086     -0.52453376869230     -0.12740025837117
  C   2.89395685262520     -0.28921558460598     -0.04492221537571
  C   3.71571249458891     -1.36283916703961     -0.07369622204884
  C   3.43142520193012     -2.84458782261913     -0.16227175976371
  C   4.82150066193849     -3.42115844332676     -0.16575447182237
  C   5.71606232424747     -2.40360322776796     -0.07721255574636
  S   7.33802115056280     -2.90137488328283     -0.04494450533149
  C   6.82257720703960     -4.55775581732600     -0.15926450280277
  C   7.87423893128048     -5.61783157629526     -0.23471682732229
  C   7.51730338214790     -6.98101053471763      0.30894675525730
  O   6.44624270054877     -7.32182384920501      0.71946512747052
  C   5.46149283601398     -4.68381495753219     -0.21402214315666
  N   5.07708512931185     -1.15968754881209     -0.01914118501529
  C   5.73039200144439      0.07074525270510      0.06458148262532
  O   6.94806383985319      0.10782658129976      0.09864180316914
  C   4.80893215510700      1.18497372286292      0.09910308995516
  C   3.46435061271356      1.00910542923350      0.04450497109579
  H   2.85537202255181     -3.07122639599487     -1.06291048787332
  H   2.82815970250733     -3.16663202001231      0.69106013813120
  H   8.78559514571723     -5.30546045631674      0.28646024767589
  H   8.19353902953651     -5.79205052835097     -1.27087816263533
  H   8.36410250870029     -7.69456986399119      0.28665332326623
  H   4.96253475798521     -5.63842956415788     -0.26850683996672
  H   5.24841982737869      2.16928425812754      0.16873730988787
  H   2.80275707455830      1.86567076581793      0.06948788869762
