21
Coordinates from ORCA-job 3813optt
  Br  1.20188902554060     -0.81092396885351      1.28227060498212
  C   2.59578037339231     -0.24411438501259      0.16784107880172
  C   3.73530333359513     -0.98134622044456      0.05034527551411
  C   4.16130217385815     -2.20221624677496      0.62670851821691
  C   5.41954006632298     -2.46893737637268      0.13756198674773
  C   5.84704815452637     -1.43230096915586     -0.75889754233791
  S   7.24609665880506     -1.40043375710890     -1.79946973991852
  C   8.62328870054726     -1.66759838495149     -0.69529691320534
  N   9.71734611571211     -1.05912590642914     -0.88060421131149
  C   8.61867959307584     -2.72571782762855      0.33516828345050
  C   7.67506314773997     -3.54610781527349      0.79967690957693
  C   6.20809995636340     -3.65049323817010      0.56651961253310
  O   5.64669366932721     -4.68085912305788      0.85824907640071
  C   4.82763427694307     -0.52077545615005     -0.82364278917160
  S   4.61994543343950      0.90647416317669     -1.70497403397869
  N   3.13762549832086      1.47744526028889     -1.27880656123734
  N   2.32790518475449      0.93181132839973     -0.47226140104680
  H   3.61412188998755     -2.80491252591855      1.33320563787018
  H   9.65105934023186     -0.35072746420817     -1.61080339497344
  H   9.62023703661153     -2.85479609881911      0.73209040151515
  H   7.99534037090470     -4.30434398753569      1.50611920157194
