26
Coordinates from ORCA-job 3814optt
  Br  1.12287669771027     -0.27360595823023     -0.20229026094166
  C   2.99550791048949     -0.07903742035238     -0.10658632520846
  C   3.58613254583540      1.09381510456589     -0.43499491592479
  C   2.86040627719132      2.33894788287097     -0.87531934163686
  C   3.47813799880737      3.57376377522342     -0.27550224370736
  C   2.77762122159891      4.51672215131576      0.36781344341227
  S   3.47414937720321      5.94045840327017      1.03885732963422
  C   5.15565883495537      5.87608570880954      0.40187653300134
  N   5.88700955790823      6.90380633079875      0.39372673118632
  N   5.66970379318477      4.65606936135425     -0.02335859204982
  C   4.92373011825197      3.66976548231467     -0.34641018828894
  C   5.60207752534257      2.43147312917099     -0.87403950068398
  N   4.96087872565720      1.22030288481272     -0.37543903991652
  C   5.72384700640166      0.15623366918593      0.02270973937847
  C   5.18677171431741     -1.02409842584393      0.36909079912157
  C   3.74950497547764     -1.26016632777497      0.32813527428335
  N   3.15062253159986     -2.34933135644925      0.63099038425865
  H   1.81082001348658      2.26375299356449     -0.60856796276152
  H   2.90767424561846      2.39840305533529     -1.96979992322333
  H   1.70820878446712      4.42781946097505      0.52193408801762
  H   5.39399891181745      7.73899972754068      0.70116811918836
  H   6.64466851521717      2.43946961005293     -0.56960550548016
  H   5.56517278277726      2.45526318410490     -1.97040542695760
  H   6.79034248250160      0.33459963860440      0.04347906922096
  H   5.83658505879249     -1.82715172599186      0.68913933046142
  H   3.82389239338916     -3.05836033922819      0.91439838561645
