25
Coordinates from ORCA-job 3815optt
  Br  1.14801665313895     -0.12349047203805      0.13149090251911
  C   3.01663896948451      0.05382349337223      0.04619576782819
  C   3.60890873184811      1.20016727582461     -0.36763419237549
  C   2.90754786907321      2.45437466493755     -0.81238775590937
  C   3.56466456360085      3.68213932562159     -0.22961284391511
  C   2.84816963652742      4.69395053635361      0.29146986809672
  S   3.49320532706401      6.13884521803112      0.95343516487401
  C   5.27087308478259      5.95129306885476      0.80203008041896
  O   5.96622806689249      6.84696810148527      1.20661126384830
  C   5.76516660502026      4.72049861166972      0.20770847353692
  C   5.00316420222569      3.71103999015368     -0.26042041848637
  C   5.63658830798864      2.49365689476820     -0.87908514503983
  N   4.97699381416775      1.28108040454505     -0.40578522588792
  N   5.78430771743545      0.27886812695701     -0.05332358583467
  C   5.25135242963339     -0.82241263069664      0.33776318340770
  C   3.81525180476799     -1.09728133082069      0.43537120455204
  N   3.29937148816417     -2.20144216819453      0.81752263751851
  H   1.85734493605802      2.40373594112130     -0.54231216472654
  H   2.95829269302227      2.49722726730515     -1.90773181380243
  H   1.76547310899517      4.65267697997025      0.32176179146367
  H   6.84702765776250      4.66075666116132      0.16545578132232
  H   6.68613974837813      2.40204091967363     -0.61705148106780
  H   5.55540242298937      2.55425925126795     -1.97079887760694
  H   5.94759082112960     -1.60560587082063      0.61746338353348
  H   4.02327933984941     -2.87917026050349      1.04986400173257
