25
Coordinates from ORCA-job 3817optt
  Br  1.03117927572058     -0.00966338974428     -0.14892579984026
  C   2.90785976870941      0.04306910477398      0.09710874618831
  C   3.61214643865201      1.24355747066297      0.02310411620454
  C   2.90944487312015      2.54991336282646     -0.23873887452643
  C   3.77437196057371      3.73718985613096      0.04601907320014
  C   3.39136236465230      5.03962576982940      0.21003930388832
  S   4.75727184119536      5.98545302070202      0.54294790840214
  N   5.82179850109864      4.74830403207580      0.48383611549903
  C   5.17673650576401      3.63735137306074      0.21209488221328
  C   5.91041319479568      2.34064249930011      0.04761850850453
  O   6.48008135501787      2.24775836699120     -1.26712822896397
  C   7.58000033282685      3.01291661287596     -1.50347820490616
  N   8.15751678305364      3.07662948215968     -2.61229835902417
  C   4.99337966520570      1.15274333953641      0.19334296983941
  C   5.56410471908101     -0.09074576803763      0.44596776702352
  N   4.87794267958066     -1.22010500462796      0.52774808699059
  C   3.56483520528657     -1.15083320076301      0.34794354645632
  H   1.99954818354345      2.59080223537063      0.36233245747985
  H   2.57593170732302      2.55605333335669     -1.28197586205967
  H   2.39794320550787      5.45801440638258      0.15755908325536
  H   6.71728356193928      2.28022380198313      0.78288472785279
  H   7.93394026201316      3.57782468694747     -0.64219619015078
  H   7.68289099735354      2.49771494940250     -3.30621989926537
  H   6.63877716006677     -0.16593062782607      0.58114272987517
  H   3.00423945791866     -2.07650971336977      0.40427139586352
