25
Coordinates from ORCA-job 3819optt
  Br  0.90043270677270      0.60339438612388     -0.10701744761928
  C   2.74251426429037      0.30198564124000      0.01507401241671
  C   3.62659686898077      1.29827602574927      0.08585763911189
  C   3.39950845526983      2.78226681608599      0.08081785748863
  C   4.77664001255907      3.32305425918131     -0.32965112229840
  C   4.92564694916643      3.50186920900375     -1.86253112845173
  S   4.79931875008505      5.26321220481889     -1.56902690775588
  O   5.88650564978841      6.03585896210266     -2.06226663549883
  O   3.45600033494014      5.72978594012841     -1.73671545450155
  N   5.06488247784213      4.72885425922134     -0.00056815273151
  C   5.74697151502987      2.32529691068104      0.30298047266353
  N   4.99748641179617      1.07521073714732      0.19912930348502
  C   5.51633269781676     -0.16722565815212      0.35123280504155
  N   4.87014665929326     -1.26658960859430      0.32816896321323
  S   3.26337838257089     -1.38241359211424      0.01732148909361
  O   3.11047476104847     -1.89616947280200     -1.30542279837410
  O   2.63749457219502     -2.05009908934388      1.11007909719549
  H   3.15411655491254      3.11539566446897      1.09461190991509
  H   2.59432303644751      3.09478807665332     -0.58137199371062
  H   4.12561544402662      3.10355732186540     -2.47936591718533
  H   5.90817788887111      3.24669705300916     -2.25115479266025
  H   4.52770007333427      5.17744827874114      0.73495491269315
  H   5.92869687270773      2.59219889852242      1.34746282132625
  H   6.69922846337907      2.26364533782553     -0.22098666772306
  H   6.59181019687551     -0.19529856156339      0.51438773486641
