24
Coordinates from ORCA-job 3830optt
  Br  1.17807821150354     -0.40922293438458      0.24296737529358
  C   3.00225003336291      0.03724203990323      0.12911851507478
  C   3.46253648693456      1.32699239771368      0.08223602742803
  C   2.61334468291737      2.48057329258553      0.12109783321463
  C   3.21788804638828      3.68489597781547      0.05841052419780
  N   2.69414170514728      4.94701356094880      0.07155307220060
  C   3.74766339076260      5.84729881434466     -0.03258089433191
  N   3.83692209592761      7.13403729793752     -0.07589401820141
  C   5.23383611675281      7.33238596780470     -0.18781130059548
  C   5.97153830341121      6.18484236036027     -0.21185682504424
  C   4.99736797771439      5.13022133908561     -0.10785466989595
  C   4.69818872525671      3.79442811252606     -0.05239362964771
  N   5.48740569377622      2.69673006180790     -0.08336056726977
  C   4.90954518606322      1.52302949066187     -0.01936073773131
  C   5.73026873486089      0.34893429948497     -0.05028027895526
  C   5.18611009474459     -0.88263070700438      0.00692585908309
  N   3.82998339930486     -1.03194280860132      0.09397737294207
  H   1.54050319894336      2.37152158615728      0.19806649283141
  H   1.72018662462978      5.18459691840552      0.13735038111361
  H   5.60709260819776      8.34415594495396     -0.24536692521362
  H   7.04116066366544      6.09799868204542     -0.29243345682721
  H   6.79968550038798      0.47946574079168     -0.12209528280528
  H   5.75834057110814     -1.79771390828262     -0.01205962172106
  H   3.42496194823848     -1.95385352706125      0.13264475486060
