19
Coordinates from ORCA-job 3832optt
  Br  1.18825070917530      0.25549322285614      0.01416118372205
  C   3.03650599968823      0.00437196669524      0.02979922135880
  C   3.59270042857377     -1.25554251914914      0.03434945544266
  C   3.15134325191470     -2.57636066118889      0.03200069969506
  C   4.29859070359123     -3.38199094749182      0.03961879695503
  N   4.36626295646841     -4.73779218962802      0.04094425673161
  C   5.59680192544595     -5.15140915919133      0.04845294504249
  O   5.99831489518921     -6.41107020795365      0.05193262619568
  N   7.46187206229299     -6.36386486314947      0.05975101157808
  N   7.85306237292934     -5.20382021916376      0.06096979372049
  C   6.76450959194291     -4.33355902624785      0.05439336979974
  N   6.75792049929709     -3.03503065175779      0.05391945016335
  C   5.50714651130851     -2.56100416665777      0.04657270214761
  C   5.05246179321717     -1.23315088009397      0.04366033199440
  O   5.76727395640286     -0.14659396405761      0.04825455988906
  N   5.20312649809931      1.08182360227396      0.04542295865896
  C   3.89603009065687      1.11825580671144      0.03649316019836
  H   2.13030894674303     -2.91615920251223      0.02595103255736
  H   3.49851680706304      2.12440405970655      0.03435244414921
