30
Coordinates from ORCA-job 3840optt
  Br  1.28014411295390      0.11162148297624     -0.92935301434177
  C   3.04672806340013     -0.13439546085873     -0.33270061797994
  C   3.50639411750402     -1.25845470641819      0.22926494650338
  C   2.75236829891331     -2.52685189080221      0.47061118856474
  C   3.50817070176622     -3.72454716967249     -0.16098202301218
  N   3.54000341361102     -3.64625633954387     -1.62634169969205
  C   4.82676937923771     -3.12622638022313     -2.07405240684420
  C   5.78864998403478     -3.75687322579987     -1.07549261434729
  C   5.02410048469659     -3.74778177541312      0.25923163119852
  C   5.40217160451323     -2.55876535335685      1.15805652964086
  C   4.91317449317138     -1.26312054734374      0.58956828483337
  C   5.67734921575312     -0.17976000414422      0.37640570862092
  C   5.12265508481840      1.03241190963213     -0.20157532037988
  N   5.67186633597906      2.14048368607050     -0.44363876646034
  O   3.77929580242953      0.95973651527799     -0.55097736947911
  C   2.82505942425437     -4.95665173887379      0.26385397848222
  C   2.25390112168485     -5.94085117514022      0.63817668913283
  H   1.74709574913581     -2.48639195635304      0.05422663893056
  H   2.64467545394340     -2.70410111777198      1.54454584273682
  H   2.74055170171954     -3.15240544786487     -2.00225935176027
  H   4.89333671340589     -2.03206918162896     -2.04000414059792
  H   5.02513839899206     -3.44505536904720     -3.09756737487251
  H   6.73691593594043     -3.22199745257982     -1.01046059959786
  H   5.99436624978545     -4.78490190174424     -1.37300782753874
  H   5.22419217902053     -4.65939228367752      0.81786632058164
  H   6.48211951130550     -2.53369266503807      1.30599413878659
  H   4.94250354611433     -2.69828530336468      2.14186698170750
  H   6.72952000325433     -0.16801323439324      0.62909212919136
  H   6.64803725678957      2.11838472702180     -0.16529816268881
  H   1.74974566187146     -6.82379663992460      0.95095028068158
