31
Coordinates from ORCA-job 3841optt
  Br  1.32946967515690      0.79513324331396     -0.02948027180682
  C   2.91780848514773     -0.21369549357154     -0.03516540644445
  C   2.96630058638149     -1.43206318048811     -0.62612371990621
  C   1.75631070336369     -2.04078050434093     -1.29837760222514
  C   2.06971117926964     -3.36911328396521     -1.98476486730262
  N   2.91613141823658     -3.14193645777311     -3.16880210481783
  C   4.31808541721499     -3.37684659542427     -2.78335234710069
  C   4.26726912876759     -3.54002546175536     -1.25350861148304
  C   2.91540010081067     -4.23701049509254     -1.04043868678590
  C   2.87975976658745     -5.74357669094392     -1.33773541202069
  C   2.91429975417949     -6.15521365345819     -2.74147657489965
  C   2.91499331652214     -6.54924313637036     -3.87341746459556
  C   4.20020490539448     -2.19138652904901     -0.58093507369265
  C   5.25458077451317     -1.64805119145152      0.05420317705738
  N   5.18204478723525     -0.41513019386718      0.63612295900632
  C   4.05493296640370      0.40364007990757      0.64685585406326
  N   3.99733845430968      1.55813892145370      1.18878160119976
  H   1.36203533567867     -1.33822021712507     -2.03363864920841
  H   0.97570763769670     -2.17741447248303     -0.54295296729990
  H   1.13844267243656     -3.85216573941842     -2.28543470754672
  H   2.65237679056852     -3.78114436639045     -3.90471118457456
  H   4.95262008222428     -2.53530068445731     -3.06500501450746
  H   4.71391011781534     -4.28147116755049     -3.25076023213152
  H   5.11644751485386     -4.10940889784771     -0.87214623022473
  H   2.59580488444949     -4.11614447768583     -0.00284183258808
  H   1.95832759013248     -6.14859016673824     -0.91081807572449
  H   3.70404666244077     -6.23410184322780     -0.81262097260277
  H   2.92292454560117     -6.89621897010516     -4.87911502863890
  H   6.20840031529811     -2.15167342530934      0.14066176485164
  H   5.99803070875172     -0.05436232948772      1.10424526913044
  H   4.88128372255759      1.82537738070268      1.61575241282003
