27
Coordinates from ORCA-job 3844optt
  Br  1.31317047615372      1.79300100250994      0.13404855087355
  C   2.86265282013449      0.75770461656564     -0.13468549323296
  C   2.81186152046542     -0.56809897952105     -0.04867686739857
  C   1.61338401471634     -1.41078194501898      0.26148191107309
  C   2.08613840710268     -2.88733373599464      0.19611443441373
  N   1.90636025087256     -3.53151591605904      1.50528311951252
  C   3.14356468351531     -3.25519455736089      2.23865846559465
  C   4.26289657241738     -3.40650514775846      1.20601238325125
  C   3.63641150498298     -2.81849920012871     -0.06067968932869
  N   3.92716843955965     -1.39276925687185     -0.23474147928532
  C   5.17450047409333     -1.02310563899534     -0.62751588615919
  O   6.05854368956576     -1.83199921089957     -0.81198555688668
  C   5.47319687314104      0.45447500022690     -0.84289826718674
  N   6.60338761662177      0.82832656525022     -1.24960365524453
  S   4.28252769460139      1.70196702073709     -0.49083807797034
  C   1.38646633202336     -3.63210703656625     -0.84696056405716
  C   0.81600091851907     -4.24953311270501     -1.69935365338887
  H   0.80669879571175     -1.21524306716781     -0.44368602737298
  H   1.23298478587415     -1.20191608756718      1.26208280256981
  H   1.80281295876328     -4.53149455876614      1.37000590966869
  H   3.23500102033418     -3.91852857248315      3.09590316915842
  H   3.10687727259759     -2.22810136098264      2.61411327037111
  H   4.47497468194055     -4.46386434930449      1.04014604127940
  H   5.19649404290930     -2.90931589156411      1.46211765702551
  H   3.94485249941162     -3.34607037508513     -0.96009732175830
  H   7.19784185260774      0.00512776787851     -1.37809633401517
  H   0.30422980136346     -4.78962397236778     -2.46014884150622
