30
Coordinates from ORCA-job 3847optt
  Br  1.09306962076782      0.21193765297532      0.68257230187587
  C   2.89470562863240     -0.06295923833376      0.19511403202236
  C   3.45458302442934     -1.32321819147527      0.18817074261225
  C   2.84336885339641     -2.65505629186497      0.50224970336971
  C   4.04764325981689     -3.62680846251091      0.55974609451190
  N   3.72223104430944     -4.92475379743207     -0.00882931918605
  C   3.46182294367794     -4.91114034214448     -1.45387855645163
  C   4.20273297692217     -3.79804653461065     -2.21739317506091
  C   5.52090324170763     -3.47378222767099     -1.52583427288857
  C   5.24474037907311     -2.89805334020974     -0.12965131332612
  C   4.80172798304991     -1.46225110404032     -0.18642291764801
  N   5.59989480042951     -0.47206716645461     -0.56238993336843
  C   5.01772773737515      0.70573052657370     -0.54008268376397
  C   3.69748839496555      1.01022723489160     -0.17589886263263
  C   3.56975664325871      2.43291858617782     -0.31199715916958
  C   4.77642284302287      2.85906006386366     -0.73466536813887
  O   5.67003168138161      1.84230572174807     -0.88316965868614
  H   2.14419172471266     -2.94954941732008     -0.28534762199810
  H   2.27715870756229     -2.65020086561959      1.43388988279016
  H   4.29802053181495     -3.79263837028360      1.60785796898684
  H   4.46592577559659     -5.57628459949076      0.20194203218034
  H   2.38636208897798     -4.82858453089792     -1.62864941787800
  H   3.76326970073868     -5.88529924168678     -1.84151268047523
  H   3.59007519939025     -2.89197926555827     -2.25722541625144
  H   4.36510597927622     -4.10632268034321     -3.25090760358514
  H   6.11371969129067     -2.75889083189286     -2.09816623117517
  H   6.11810457184827     -4.38518804836057     -1.43121374949711
  H   6.15172258450778     -2.96955757677460      0.47380563222391
  H   2.70090033701025      3.03826025062708     -0.11956352919840
  H   5.15159205105688      3.84019208811881     -0.96954892019381
