23
Coordinates from ORCA-job 3848optt
  Br  1.10277625109662     -0.27398609961185      0.04555645307252
  C   2.97229233779603     -0.06464015889509      0.07251752832280
  C   3.52243634931023      1.21513652246407      0.07800083096880
  C   2.68582506221429      2.46072923753580      0.07114182132850
  C   3.53047713282547      3.70315340833766      0.07899975118902
  N   2.89849719683891      4.87261844874871      0.07525154261235
  C   3.61080056004802      5.99121040001448      0.08094526399297
  C   5.00100714075532      6.00338862810828      0.09038881221008
  C   5.67017043145574      4.79440448303293      0.09495589517149
  C   4.91756459967869      3.63240601022408      0.08954092564083
  O   5.60373567976534      2.44549699422215      0.09574770027975
  C   4.90920798833659      1.28092823310683      0.09236469594737
  C   5.67246622487995      0.11338395266995      0.10420147474940
  N   5.13246517786488     -1.08672286151661      0.10192404675973
  C   3.80320084608154     -1.18323768761521      0.08598415516416
  C   3.25529710673363     -2.51657550875516      0.08426044717436
  N   2.81732207116178     -3.57562863526641      0.08311223304424
  H   2.01800010068228      2.46839930789276      0.93679011038274
  H   2.03257650641825      2.46963527247377     -0.80552104845974
  H   3.04854794293426      6.91759554995587      0.07779888232481
  H   5.54343409625119      6.93861189888292      0.09431875413822
  H   6.75026742330234      4.72887268199275      0.10303904396228
  H   6.75363177356858      0.18581992199731      0.11668068002332
