24
Coordinates from ORCA-job 3854optt
  Br  4.13558648356774     -0.10138339680725     -2.93119686881296
  C   3.70408992548030      0.28117008997520     -1.14451860119869
  C   3.38882285837020      1.49022291518375     -0.67389510238129
  C   2.79220582682555      2.64095625205990     -1.46281174376707
  C   1.40679652730435      2.71133164924069     -0.86666684265473
  N   0.68762406947369      1.66895077226750     -0.61522179692333
  C   -0.11875479648824      2.09974416191444      0.40411798590039
  C   -0.84170360984498      1.11403319779361      1.26122757893807
  C   0.07357370951108     -0.09493324554713      1.51723493386350
  O   1.36555427358536      0.34121824093123      1.98184098155023
  C   2.40453012311900      0.22613661191157      1.14365255521121
  N   2.68021101182268     -0.89413295947732      0.60559610780493
  O   3.69319242999074     -0.82503240340885     -0.37926154335857
  C   3.11752425409491      1.48486291807466      0.78265108407426
  N   3.27358666703060      2.40478492469844      1.63223189653760
  N   0.03050244934275      3.35752903086733      0.69554823091538
  O   1.03745041541110      3.77501950829869     -0.16483461560947
  H   2.77318437173306      2.41188152684864     -2.52654996490538
  H   3.30124518824913      3.59237459008003     -1.31240809190358
  H   -1.11972253451542      1.60079233152584      2.19447671222291
  H   -1.74966901791135      0.75066872903296      0.77514757751533
  H   -0.34984386410616     -0.72979063747710      2.29267875538367
  H   0.20614267727543     -0.67959739519075      0.60843298830338
  H   3.72987056067848      3.22119258720394      1.22252778329422
