21
Coordinates from ORCA-job 3855optt
  Br  1.46387910247058      0.32558544115355      0.18900005397871
  C   3.25207521981147     -0.20341895891207      0.17585316994928
  C   3.65566874273798     -1.47861993343913      0.08561758662584
  C   2.98045761140217     -2.74585446608715     -0.01474002166550
  C   3.86990703075676     -3.77044928232140     -0.08039258154589
  N   3.54520567804141     -5.09602294578996     -0.24269979060859
  C   4.65104853071875     -5.93996333871813     -0.39440098351297
  C   5.59916797528556     -5.75171239727041      0.53391435356267
  C   6.78223455542879     -5.09467745299821     -0.08211830954979
  O   7.74084112892742     -5.51619836869588     -0.64137381094784
  N   6.48898289079918     -3.67869048115315     -0.03342472951567
  C   5.30857685072765     -3.20838163281127     -0.01490026342285
  C   5.07714892720819     -1.73682769135485      0.08781025670885
  N   6.00188088987935     -0.86946528326513      0.17116486047969
  O   5.59242857842918      0.43000334531768      0.26626539869683
  C   4.26937237856057      0.84805696839924      0.27774338461835
  O   4.06620236361867      2.01703280413036      0.37016504057058
  H   1.90555660870440     -2.85181459799387     -0.04092960654168
  H   2.63313014191849     -5.31899396194686     -0.61329713690473
  H   4.82884187609950     -6.38396571782919     -1.36910923015493
  H   5.27239291847390     -5.29762204841412      1.46285235917964
