25
Coordinates from ORCA-job 3862optt
  Br  1.30749759720162      0.44052272339319     -0.15291849432832
  C   3.13323461759100     -0.03428582652400      0.00529201974230
  C   3.51325627702939     -1.36464851810625     -0.10933696206735
  C   2.52975186629532     -2.47159337995038     -0.42873405225463
  C   3.31502560715413     -3.70412766555181     -0.81556194958186
  N   2.64099673819875     -4.98764033824706     -0.66850133913607
  C   3.69178969788521     -6.00628326430086     -0.69407118505663
  C   3.34825588339926     -7.19239937494199      0.09038757641416
  N   3.07635913894666     -8.12229202798035      0.70092723257017
  C   4.94117686625926     -5.26672187360749     -0.12700072403004
  O   6.02912180312963     -5.72862105809268     -0.02729209823175
  C   4.45878739502758     -3.86331723768364      0.16775142575335
  O   5.41794569585575     -2.86157670303193      0.04492145202972
  C   4.89307651776168     -1.60104876459939      0.07276459666168
  N   5.79402263508549     -0.66518091688865      0.27581562440816
  C   5.38289573427607      0.59404508969878      0.34985990800604
  C   4.05625587865239      0.97084789961613      0.23941902723052
  H   1.86167588909763     -2.14869569086401     -1.22837670414375
  H   1.90726128058792     -2.69594993855445      0.44221899256021
  H   3.75656438799819     -3.56165978503660     -1.81457301094657
  H   1.91558413055394     -5.15615061349611     -1.35298535466676
  H   3.97621467422380     -6.33508713987350     -1.70238759335836
  H   4.03220346056912     -3.88186231452606      1.18277090063312
  H   6.15121019876526      1.34061437704291      0.51477604501564
  H   3.75283602845490      2.00311234210625      0.32683466677704
