27
Coordinates from ORCA-job 3868optt
  Br  1.95065129529804     -0.78227456879371     -2.03228924504548
  C   2.76352609108071     -0.08509631550035     -0.48265372659038
  C   3.42786740011042      1.14527163405822     -0.48811416429849
  C   2.89161339780151      2.26277757627470     -1.35801775344582
  C   1.49859748372523      2.39274742629964     -0.77041554868176
  N   1.27796489353395      2.50223728063347      0.47022948457374
  C   -0.11696747072505      2.11054070789821      0.68840197972089
  C   -0.70654135563169      2.09185933467370     -0.73609716523256
  O   0.46104499571576      2.11724671945604     -1.58553418808871
  C   -0.15001317071565      0.78368252091126      1.49696513634660
  C   0.04508909167490     -0.52790198674990      0.73883918944056
  O   -0.78192746410394     -0.90685269994172     -0.04947686616831
  C   1.27329399791509     -1.40228207679460      1.04955557227656
  C   2.52425331469025     -0.61631600015770      0.77888925919231
  N   3.28203488870337     -0.24768193265903      1.81448669885855
  C   4.19868723970416      0.67956303325785      1.58338716584142
  N   4.22322093057969      1.47054960400298      0.51829497145005
  H   2.83247490882584      2.02261911853197     -2.41627735273772
  H   3.47946762979511      3.16143885005290     -1.19025510038285
  H   -0.61579188433826      2.85755617021950      1.30524389054664
  H   -1.28849703447474      2.98946559237099     -0.94343937049097
  H   -1.28012468598907      1.20098388367695     -0.97601430569381
  H   -1.13935819864952      0.69171872429059      1.95203970748709
  H   0.58844710785038      0.88162983604529      2.29414996542471
  H   1.19513152435463     -2.29862196723367      0.43695230352898
  H   1.26619416671363     -1.66731948962229      2.10789057164948
  H   4.92366090655523      0.87245902479868      2.36525889051929
