23
Coordinates from ORCA-job 3876optt
  Br  2.93640337961132     -0.54122137919553      3.42480219387476
  C   3.53680133477014     -0.51094956671206      1.63705162405101
  C   3.05767370179936      0.34961524779899      0.71326610759232
  C   2.17482286813755      1.43496668958652      1.07440556980201
  C   1.38685341707259      2.14723741066048      0.24602884420797
  N   0.49286177656552      3.13496663388821      0.69603769682204
  C   -0.17865968910418      3.48394642899563     -0.33797812832211
  N   0.17938526117298      2.82630747488634     -1.49597023266882
  C   1.21885407177443      1.97513675193416     -1.19037075072321
  C   1.93985137436089      1.23140148188779     -2.06890442963196
  N   3.10389016222836      0.58825489414888     -1.79137894530134
  C   3.61377516850267      0.24688092739215     -0.66829019376618
  C   4.96106987706877     -0.41579472393427     -0.80424414445526
  O   5.67048278832325     -0.28467385486257     -1.76149284627318
  C   5.38419679465388     -1.36886323187460      0.30359318803200
  N   6.40422640939852     -2.11015387006465      0.24063601580756
  N   4.53132462204175     -1.43027930100363      1.38744536118696
  H   2.12033560911329      1.70683869037234      2.12178688659859
  H   -0.97091716859032      4.21859029407896     -0.34512782802847
  H   -0.16999494248668      3.01609317869689     -2.41933382668426
  H   1.66439695691797      1.23923326019638     -3.11721933485305
  H   6.88447715420144     -1.93406618303737     -0.64184717521611
  H   4.77688907246647     -2.09746725383905      2.10410434794872
