26
Coordinates from ORCA-job 3887optt
  Br  -0.43540760658486     -3.40888572553805      0.58291184608445
  C   0.45805160579118     -4.96871787800603      1.13219094395710
  C   1.76219951320609     -4.99146853593514      1.45104360569306
  C   2.80621226742329     -3.91535549651213      1.51774892800955
  C   3.85544253045631     -4.57992464218504      2.43349135479326
  N   5.08942784100378     -3.85644765419294      2.51832315801025
  C   6.09934871152275     -4.06243055804432      1.79835701889041
  N   6.32356242156003     -4.99412892739653      0.79406613163336
  C   5.50540392161883     -6.00386892561660      0.31315443260810
  N   4.43046710405383     -6.47658340705289      0.76384623474932
  C   3.81754948243627     -6.07543740396638      2.01309069000695
  C   2.32572122359753     -6.26123034510854      1.81924798602506
  C   1.58940684738453     -7.38304054922079      1.87940927190632
  Br  2.35854733165387     -9.03886930610177      2.33256531791581
  C   0.15499221028674     -7.36467748777961      1.57628799564778
  N   -0.70432470009448     -8.30151802377745      1.61187234589262
  N   -0.29726854365037     -6.09804224890923      1.18568184793702
  H   2.44030479038847     -2.97522276269687      1.92768172077187
  H   3.24111303628370     -3.71339980054847      0.53396255265814
  H   3.42576243398838     -4.56601779920696      3.44057808631877
  H   6.96817859021817     -3.42208783546974      1.94046934418157
  H   7.19038688724880     -4.87733279038443      0.29369379710188
  H   5.90340883147299     -6.43476944365664     -0.60434919553191
  H   4.21056027549197     -6.71538568575467      2.80604709958891
  H   -0.27998858491022     -9.17879839592599      1.89414966475887
  H   -1.28105842184763     -6.05935837101268      0.95947782039146
