22
Coordinates from ORCA-job 3890optt
  Br  1.23926843377885     -0.37919957472897      0.08557011808256
  C   3.07594332565471      0.01401550299302      0.10638638369341
  C   3.57526626264740      1.26657166003591      0.10914793262739
  C   2.79477583965028      2.48100064035227      0.10093914219760
  C   3.43507757524290      3.65514292252226      0.08605686440208
  N   2.90874081479365      4.92319350977326      0.06058789685887
  C   3.88805698682186      5.89803698805362     -0.01479083923663
  N   3.81513187576891      7.15226221041160     -0.08290921656208
  C   5.20230353602646      5.13485105518220     -0.00432312752943
  O   6.29997305991055      5.60330256353569     -0.06282251131382
  N   4.83120502488367      3.79437084871010      0.08106673005379
  C   5.61518502193775      2.61975547637679      0.13509820432859
  Br  7.47566947710732      2.83284620645257      0.25007368171698
  C   5.03077290199692      1.40489287480044      0.13695753046256
  C   5.76557248444705      0.14445846986733      0.18072714515184
  N   5.22229938855592     -1.01793498100173      0.17184363256585
  N   3.88655384074784     -1.09332934557021      0.12547886760534
  H   1.71554799426907      2.45262813855190      0.10151767810717
  H   1.91929926887179      5.09775640655211      0.01789251299352
  H   2.85533042035258      7.49348844348962     -0.08107742694379
  H   6.84528956879291      0.15119487043861      0.21922598205762
  H   3.49873689774153     -2.02030488679843      0.12635281868059
