23
Coordinates from ORCA-job 3894optt
  Br  0.97634039681398     -0.26215768325686      0.10565828829449
  C   2.82681515160024      0.01334234933250      0.00523999414486
  C   3.35301308903374      1.20534960088628     -0.33096752686470
  C   2.55951244424200      2.43615197220840     -0.66381203799650
  C   3.32171229354567      3.68347087304839     -0.32091546826543
  N   2.70693102692175      4.75602562995827      0.00821401448385
  C   3.45879977327260      5.90545646283410      0.29499512122191
  N   2.99006402610895      7.02234236045418      0.66326457186466
  N   4.83591978632281      5.77221168826280      0.14519949917864
  N   5.48976285239501      4.65809386785508     -0.16578183056918
  C   4.76851834412487      3.63224054223694     -0.39481806266631
  O   5.39249104942267      2.48512929100819     -0.78423974122937
  C   4.79459196710706      1.30938748045099     -0.39190624791081
  C   5.55855008365377      0.25191845608894     -0.11907860419806
  O   5.02648618161914     -0.94531984940856      0.20047444330934
  C   3.66699136119306     -1.15574765698606      0.29632473003891
  N   3.21017135242875     -2.28487850697456      0.60902122298391
  H   1.59404331033170      2.44943391356597     -0.16396159401144
  H   2.36340731986765      2.44533945283660     -1.74351970447036
  H   1.97758595693812      6.97067747581610      0.71376790211114
  H   5.40680888238546      6.58327417571071      0.32593041902946
  H   6.63739726801826      0.25433858243349     -0.14640715714953
  H   3.96008608265269     -2.95408047836193      0.76831776867053
