23
Coordinates from ORCA-job 3895optt
  Br  2.72149074828497      0.14247093793653     -3.18886941095645
  C   3.35522186308977      0.20554030809429     -1.40885497643103
  C   3.37566982144265      1.37370985551638     -0.72404780399680
  C   2.62638714661268      2.64150966567399     -1.17996769556445
  C   1.31948735633663      2.49326656281761     -0.43170042389909
  N   0.75035618007228      1.34738891405012     -0.36519349347825
  C   0.35824936049012      1.30260513602442      0.95092914077437
  N   0.39030102506917      2.46400491481903      1.55411935972280
  O   1.04046167190702      3.27715753743681      0.61526798624404
  N   0.65164337504377      0.13956494311913      1.68644541613322
  C   1.38137873610360     -0.63060446340854      0.97400819457012
  N   2.57996584325117     -1.12286863580542      1.47643167373786
  C   3.69784992689020     -0.96483163507072      0.66243908690896
  C   4.71337675106180     -0.11010648247653      0.99525244777471
  S   4.02791460498438      1.52000303695949      0.94452026488201
  C   3.60159073212159     -1.16277748837719     -0.81438101076642
  N   3.65444691295976     -2.21502083013498     -1.50973475075321
  H   2.49655741380769      2.64525434563237     -2.25827001365464
  H   3.13521240795743      3.55032954277699     -0.86235187967692
  H   1.27492888124804     -0.76149707324927     -0.09946428518207
  H   2.75395488944760     -0.80435839836262      2.42798911263947
  H   5.59746087074572     -0.17814979479947      0.36979515699842
  H   3.76609348107193     -3.03659089917244     -0.91636209602666
