24
Coordinates from ORCA-job 3899optt
  Br  1.21781587938185      0.18602081687144      0.08990344219762
  C   3.07779659001281     -0.03799953671404      0.09161365903686
  C   3.64490724130173     -1.26555506402043      0.03340779709187
  C   2.82311830817276     -2.53726621827156     -0.05299955195434
  C   3.73895586327380     -3.67495230556300     -0.40699545957484
  N   3.28666708468286     -5.06559175243102     -0.35282424021935
  C   4.32446822462376     -5.70420892014010     -0.02844614197688
  O   5.45985889142971     -4.99960533871991      0.28966094914759
  C   4.96068822321362     -3.67502415453383      0.50886397289782
  C   5.85335852320240     -2.54386634716502      0.05077183637035
  N   5.02455085675112     -1.31864332409682      0.07089152204175
  N   5.79446793286093     -0.21996605599746      0.15981183131031
  N   5.30386049457087      0.92557389372484      0.20052674198793
  C   3.89280830866444      1.15837729627032      0.17206571531411
  O   3.47792012457802      2.28538617499406      0.22115864844704
  C   4.62710034425785     -3.51914167708624      1.93327202566429
  C   4.37408542330360     -3.35089733221271      3.09007528748722
  H   2.04159467655041     -2.39762917119006     -0.79817296638473
  H   2.33474930248113     -2.70282173566654      0.91003909589459
  H   4.10423318439199     -3.51156398422025     -1.42971929069822
  H   4.42907821862436     -6.77918602087956      0.02279436183069
  H   6.21097981966999     -2.73844118787872     -0.96119315555833
  H   6.69657352651801     -2.36329180075787      0.71117166976740
  H   4.15036295748188     -3.20770625431552      4.12132224987924
