20
Coordinates from ORCA-job 3901optt
  Br  1.06696449222889      0.24259012942476     -0.03361279466936
  C   2.91235971650392     -0.00698875886944     -0.04413384958891
  C   3.51301826298597     -1.22157357907894     -0.04864545442897
  C   3.04307086960802     -2.55682914112494     -0.04789493264167
  C   4.17414303522175     -3.34315872694384     -0.05152483991704
  N   4.28542957545636     -4.70693476772688     -0.05221427817252
  C   5.48229086925383     -5.40423439880137     -0.05436653613330
  O   5.49668301414611     -6.61115294201139     -0.05418639281257
  C   6.69291645296867     -4.54626427322523     -0.05623509514188
  Br  8.32566545554060     -5.46605652352690     -0.05768373871740
  C   6.64503481918986     -3.20190041297923     -0.05647818651508
  C   5.37268821436347     -2.54514806366544     -0.05455596585457
  C   4.96782117020692     -1.22336208949845     -0.05362767766158
  C   5.57874037051442      0.04961572389973     -0.05681456697188
  Br  7.45401268379170      0.23132198290793     -0.06767497080478
  N   4.96085292201946      1.18434016355712     -0.05365480354168
  O   3.57737476772024      1.13369948928409     -0.04605472213578
  H   2.01342239071905     -2.87406614933491     -0.04507814391346
  H   3.46012392900130     -5.28955937812905     -0.05020894187524
  H   7.55838698855943     -2.62433828415758     -0.05735410850231
