21
Coordinates from ORCA-job 3902optt
  Br  1.05579670572692      0.08894005104717      0.03877545822040
  C   2.92446925148014      0.08746371767915      0.04152622247901
  C   3.66150953250100      1.22548509197613      0.04220524872692
  C   3.32571281946754      2.63277456291589      0.04152053263942
  C   4.48740644939626      3.33671735378233      0.04225175746363
  N   4.67927127435473      4.70359754755848      0.04194115912895
  C   5.88671128463414      5.11279421074166      0.04247159100096
  O   7.00820404815293      4.34290169774561      0.04307096875516
  C   6.86449149762750      2.98722900231155      0.04364046458723
  C   5.64764762015390      2.45071327512873      0.04339804372038
  C   5.10931175984364      1.09883174307594      0.04360409358179
  N   5.75255676255056     -0.01694306462656      0.04458531413765
  N   4.99029386847973     -1.10352649498076      0.04435502156633
  C   3.59503285205153     -1.20598937698912      0.04285911306955
  O   3.07584046383727     -2.30057302128173      0.04304546191403
  C   6.20872374878598      6.50811500418845      0.04198618755703
  C   6.48148995836030      7.67242369878619      0.04225186224624
  H   2.32745943523293      3.03926937068081      0.04062242749607
  H   7.81164792173075      2.46981922715552      0.04425315623054
  H   5.48434961708689     -1.98515159345341      0.04527346465538
  H   6.71607312854531      8.71110799655794      0.04236245082331
