23
Coordinates from ORCA-job 3906optt
  Br  9.55421631143019     -6.50475053727531     -3.00547681632265
  C   8.59207104864198     -5.35950867055999     -1.89174638914290
  C   7.52762547666040     -4.66404293616652     -2.29385484438454
  C   6.81657957628573     -4.56956294925583     -3.60899165728527
  C   5.44225929104025     -4.00898970330683     -3.23000595508652
  N   4.62266355808449     -5.00187668678440     -2.58850064861797
  C   3.42329911428846     -4.67198893057746     -2.46663734395820
  O   2.90133207275966     -4.73256200646176     -1.20765280114525
  C   3.63498190832372     -3.86156590451828     -0.41488558389473
  O   3.36366167291458     -3.75544765358815      0.73550436346611
  N   4.51349324954807     -2.95493715517508     -1.06634742330386
  C   5.67984278514567     -3.12592158649273     -1.95003152261940
  C   6.86459076205373     -3.83154096866632     -1.32118000918740
  N   7.19950628552257     -3.68362443070105     -0.10486899129377
  O   8.30095349967084     -4.39288922398329      0.30674410473711
  C   9.03954191633907     -5.23720649742699     -0.49221863627407
  O   9.97079819982460     -5.79835228317526     -0.00719695367269
  H   6.73818390443620     -5.53334580339793     -4.11021966980574
  H   7.35235616794922     -3.88633404119552     -4.27351411070312
  H   4.95074161157643     -3.45070067574937     -4.03328911334492
  H   2.80152067842899     -4.12963650633530     -3.18455204576600
  H   4.74530044029945     -2.27395174367666     -0.35197040943729
  H   5.98848046877562     -2.11626310552993     -2.23810754295690
