26
Coordinates from ORCA-job 3910optt
  Br  1.26167041752061      0.09389446096351     -0.64420887704717
  C   3.14849605761931     -0.01027359230448     -0.36882765583831
  C   3.72698406418685     -1.21256586147583      0.03172499057110
  C   3.01530026222413     -2.51487250444747      0.23382066214703
  C   3.75784605393447     -3.64929206809559     -0.50865211387347
  N   3.77080578774078     -3.42220759352993     -1.93501187497970
  C   5.01656928814243     -3.42185134879787     -2.49450629350048
  O   5.30687447871191     -3.33631207235239     -3.64742663631955
  O   5.93004789291573     -3.52188110552522     -1.49100642532948
  C   5.30243281719170     -3.64370740982920     -0.21987037457044
  C   5.73904776393875     -2.48937880472679      0.67283897412458
  C   5.10648730553423     -1.20035367641912      0.23561482961995
  C   5.81935315433733     -0.03208688319188      0.01499101991568
  C   5.12492296645330      1.09498110225148     -0.38983899526364
  N   3.80656070929557      1.10509338274807     -0.57341109746969
  C   3.15416191782800     -4.94050849302430     -0.15537898442301
  C   2.65367573186019     -5.98439500607865      0.14850366028744
  H   1.98937178152938     -2.47442275313495     -0.12514888984920
  H   2.97478744102433     -2.76929720495686      1.29707351395529
  H   2.95604502886678     -3.51083549260556     -2.51843984561043
  H   5.60765532379743     -4.59505731730922      0.21266169839656
  H   6.82640070887487     -2.42407719336111      0.65608644661502
  H   5.43607099361463     -2.71811718844003      1.69957402720606
  H   6.89241769202975     -0.00006458179362      0.14934759461585
  H   5.63784636074375      2.03022250119463     -0.57944154138264
  H   2.21216800008371     -6.91663329575757      0.41093218800267
