25
Coordinates from ORCA-job 3914optt
  Br  1.11818575690864     -0.27730115065811     -0.51791413511098
  C   2.95358421446289      0.01341235599356     -0.18256237289590
  C   3.50778751620794      1.29645383156464     -0.22691976593397
  C   2.58846903507414      2.47289116811904     -0.48806661508207
  C   3.00706130199638      3.79777015567213      0.04485293057030
  N   2.18938173081846      4.58509051331639      0.72371009412028
  N   2.88651731863564      5.70114513669289      0.92837797795869
  C   4.14149594704290      5.65320070198692      0.41798949348496
  C   4.24625725757058      4.41855505051149     -0.17797119566851
  N   5.28220195451844      3.75292059734411     -0.84575619648656
  C   5.78578809807451      2.60339278092940     -0.11124326272608
  C   4.90382137277668      1.36462096846042     -0.05443145046378
  N   5.65179303284000      0.29190606575667      0.22415476890325
  C   5.09615577817101     -0.89631858239025      0.31397696586106
  C   3.73780045611387     -1.10297602696972      0.09585658197223
  C   3.21056101997775     -2.43076519262609      0.16992678343906
  N   2.82717055755635     -3.50951624731445      0.24153221493899
  H   1.60863687030532      2.25460236732811     -0.06998157822613
  H   2.44987150831464      2.55341594105742     -1.57243021413678
  H   2.45492026688482      6.46419499494602      1.41925077262732
  H   4.82945256719570      6.47633959862465      0.50925315829780
  H   6.03750927215641      4.36783896418702     -1.11074311195832
  H   6.02902465074947      2.85814234646334      0.93021236115076
  H   6.70931436865871      2.27143646104759     -0.58212825570997
  H   5.73823814698873     -1.73645280004323      0.55305405107436
