24
Coordinates from ORCA-job 3915optt
  Br  2.24623516256416      0.61473455505838      2.29568098258576
  C   3.01266866580956      0.58034234670137      0.57233465271133
  C   3.76712010303356      1.58969776553763      0.11199054546294
  C   3.53719257668078      3.04241455318236      0.49616179001371
  C   2.03399629769792      3.14767517377496      0.28041841611891
  N   1.17475938618853      3.50915590622709      1.20760615709311
  N   0.04327620391847      2.88419276154546      0.82027337226838
  C   0.26991004140436      2.15272760748066     -0.29355880856077
  C   -0.56386467961225      0.99955816530420     -0.79486190750607
  O   0.22659770481045     -0.05865690127489     -1.28285815844821
  C   1.03333099621916     -0.82711147977112     -0.39782285124652
  C   2.48738798282174     -0.35524945534296     -0.41144912486805
  N   3.09278832368715     -0.58145345941048     -1.51313033853057
  O   4.27443422994393      0.08952658517408     -1.71861102084909
  C   4.51343601744857      1.30157919859609     -1.12449108580632
  O   5.35911389171477      2.01054965460210     -1.58345308139890
  N   1.48554162085435      2.37964517640560     -0.70315282114198
  H   4.13450480247661      3.67692894929776     -0.15497936084333
  H   3.76616163066014      3.26799776632558      1.53623894934056
  H   -0.77622020199066      2.92937881370352      1.40273710248124
  H   -1.19194410897726      1.29451255961510     -1.63508988734710
  H   -1.21607691455817      0.66312261867417      0.02104200058204
  H   1.01197506919425     -1.84133812949687     -0.79276159920556
  H   0.62267519800989     -0.82493073190981      0.61273607709448
