22
Coordinates from ORCA-job 3917optt
  Br  2.92342277194905      0.47787704643710      3.52713824493363
  C   3.54597438731798      0.42719824678796      1.74075044866796
  C   3.01690381497644     -0.46021193165142      0.84859478423501
  C   2.09812141264853     -1.49059835365626      1.19113080288871
  C   1.45739994913324     -2.33204179469763      0.32660609417633
  N   0.67626591605310     -3.40038526452295      0.64579483247858
  N   0.04413009152382     -3.94866550755839     -0.43006323189775
  C   0.43907584993001     -3.25529790674302     -1.43111801444066
  N   1.34293893161306     -2.27504132263951     -1.04798580258629
  C   1.78181524456159     -1.22322042771152     -1.89433052470464
  O   1.12336083017990     -0.92683933832286     -2.84730162101568
  N   3.02749798516010     -0.69834480465736     -1.62664860962874
  C   3.57366950032317     -0.37684206033995     -0.52751860566768
  C   4.97598938005585      0.24169578455126     -0.71007216076283
  O   5.65440963589745     -0.07737668219614     -1.65125304069162
  C   5.34807534647373      1.23137551074222      0.29027042799850
  C   4.64962849492528      1.30227725722940      1.43816605492358
  H   1.91469653059438     -1.66611365612255      2.24115275038684
  H   0.47892290000249     -3.74037460419084      1.57029528366931
  H   0.14540880500144     -3.39455587054397     -2.45691844830895
  H   6.22313918685986      1.83635902960360      0.10150565889723
  H   4.94515303481950      2.00312665020284      2.20880467644915
