24
Coordinates from ORCA-job 3918optt
  Br  0.98609116611494      0.08868021994946     -0.01037095815008
  C   2.85826644788242     -0.04953783106823     -0.02439882803104
  C   3.45977891649160     -1.26690113670859     -0.02962719038836
  C   2.64650451539184     -2.54218477986537     -0.02806393435972
  C   3.54296890833979     -3.72822600986588     -0.03209896654122
  N   3.16727160929562     -4.98236606077988     -0.03102701880547
  N   4.31795347242315     -5.68985682190125     -0.03492260811583
  C   4.26819375213137     -7.08287136885346     -0.03446697143965
  O   5.24611610595061     -7.76923736981757     -0.03707546259456
  C   5.43689005516903     -4.89846449228007     -0.03875764766078
  C   4.95509585944855     -3.62552114613334     -0.03698222350520
  O   5.64687077064297     -2.46858575174235     -0.03953810593999
  C   4.90234210418743     -1.30496724129623     -0.03745457948567
  C   5.60049160185127     -0.15581200384166     -0.04199534563758
  N   4.95890486566237      1.04758655181377     -0.03883698422960
  C   3.57982827808531      1.22473083394183     -0.02970460849635
  N   2.98360765434359      2.35255470403857     -0.02667449577647
  H   1.98549093531451     -2.55036028095655     -0.89816416301032
  H   1.99098463821957     -2.55224046327217      0.84610041840537
  H   3.23011966180278     -7.43780228721342     -0.03143349111715
  H   6.42614448454067     -5.31961491202880     -0.04235207769829
  H   6.68013600731849     -0.14525554488450     -0.04793833022617
  H   5.51815812921359      1.88556637143629     -0.04352688539743
  H   3.63479006017852      3.13368682132943     -0.03168954179842
