20
Coordinates from ORCA-job 3919optt
  Br  1.29858692101438      0.28196920711585      0.02018449400270
  C   3.16755953010178      0.11895154250279      0.01788915494968
  C   3.80628021949960     -1.09772727368414      0.00383088288533
  C   3.14886827766447     -2.46995134874241     -0.01209995421937
  C   4.35426412231874     -3.35159619967707     -0.02160505535261
  N   4.64713956649644     -4.63617933941678     -0.03566275344152
  N   5.97358440698525     -4.62035716945921     -0.03554182910766
  N   6.57182763535952     -3.44229145214539     -0.02271340853007
  C   5.54044149736464     -2.61388655394581     -0.01367226186558
  C   5.23582289625256     -1.19140760900884      0.00235248075032
  C   6.03755188027038     -0.07401420944169      0.01494932436297
  Br  7.90265385430799     -0.18162403751509      0.01268359769051
  C   5.37470081554583      1.15477540442427      0.02914329831052
  C   3.99228056446377      1.24254634476985      0.03127583420206
  O   3.66497441454943      2.53168270094754      0.04766646446603
  N   4.88875968868693      3.24813066506411      0.05531025531144
  N   5.83958926571210      2.45674376155801      0.04456403163299
  H   2.51594434221879     -2.58970977467824     -0.89375708417690
  H   2.51443285613510     -2.61026040213974      0.86537762636252
  H   6.50673724505224     -5.47479425652801     -0.04517509823338
