25
Coordinates from ORCA-job 3926optt
  Br  1.53295775566477     -0.11006151774732      2.37353334673868
  C   2.53006595025656      0.32920313782777      0.84020316753074
  C   3.44646220785996      1.38893003275950      0.84236031305975
  C   3.11910288862259      2.67075300151997      1.61919374474416
  C   1.74800512478121      2.95539733685251      1.01609465854010
  N   0.68039151153847      2.83097974538024      1.75523860791636
  O   -0.31991689616671      2.38438431836131      0.92220265920588
  C   0.19549741735767      2.19246333685704     -0.30744263284934
  C   -0.40241790747674      1.13093769584016     -1.17472279392724
  O   -0.25463297087971     -0.16625232409890     -0.56607225147551
  C   0.88663210386200     -0.93865801797667     -0.59585375233714
  N   0.82450339959974     -2.18276603210080     -0.72131847681405
  C   2.21854894598491     -0.26612310254747     -0.38012712328936
  N   3.00351752803084     -0.13839947989856     -1.44639427761517
  C   4.09866009337852      0.60367516137785     -1.32842380339016
  C   4.31431194679008      1.44181664335408     -0.24030230027335
  C   1.44541693905644      2.68130384040673     -0.35603209017233
  H   3.87043674004530      3.43054462975979      1.41285003617486
  H   3.01063632521082      2.53298620331602      2.69300467443103
  H   -1.47735466037015      1.24175556086820     -1.29672049870501
  H   0.08213376317871      1.15583521875907     -2.15176119725963
  H   -0.14129519104088     -2.48194715058283     -0.86339063926329
  H   4.76431486964993      0.61898159139285     -2.18345939030076
  H   5.07045436428796      2.21532705734216     -0.29437209803355
  H   2.13256775077769      2.59793311297729     -1.18028788263567
