28
Coordinates from ORCA-job 3930optt
  Br  2.57044072250752     -0.40717327102883     -3.12734130817040
  C   3.20574494756085      0.13652643525778     -1.44494141950416
  C   3.73397428123831      1.36991950431853     -1.27233530404926
  C   3.28080027394475      2.60406583374464     -2.04894622032237
  C   1.85412486424876      2.67382340804867     -1.49530987530855
  N   0.87898376818838      2.25049361545333     -2.25800353244850
  S   -0.32936152786011      1.63799639552184     -1.30912198165432
  C   0.48285009749048      1.93884201220452      0.18901977725901
  N   0.08211930366322      1.40284970319259      1.39402536304674
  C   1.05843860984404      0.99138094864422      2.40428596459115
  C   1.95296649141452     -0.24324179753248      2.10434708669426
  C   2.94465633692145      0.00249485431551      0.99002488670429
  C   3.80296903110741      1.03429759623443      1.08019014226784
  N   4.30074014221065      1.64797500830301     -0.03880063023720
  C   2.87845939346086     -0.72628370665960     -0.29354551490448
  N   2.46925141580174     -1.92395880449801     -0.46350273526042
  C   1.60709824913900      2.66261316719894     -0.08945728331273
  H   3.24688697831173      2.44788228459122     -3.12294293222077
  H   3.89761415451260      3.47199061430570     -1.81361367223508
  H   -0.71378293486541      0.78715105769635      1.32711196241384
  H   0.48895325823035      0.78637788664031      3.31188100200441
  H   1.69556091504932      1.84898592911259      2.62594717182718
  H   2.45756533792804     -0.49572829883674      3.04207070269524
  H   1.31427926046944     -1.09284245866869      1.85642590285636
  H   4.02273981305168      1.53117608229654      2.01834603429943
  H   4.76700118072942      2.53239748065648      0.07171081355258
  H   2.22148848153977     -2.35610256196863      0.42436077583346
  H   2.30543715416119      2.99809108145577      0.65611482358245
