21
Coordinates from ORCA-job 3936optt
  Br  0.94819205720382     -0.80682757098356     -0.48484226983831
  C   2.71013262741368     -0.30025181007517     -0.15807934150883
  C   3.12871879753460      0.95655111521553      0.01770644196590
  C   2.29904321309684      2.21423956443901      0.10729204821240
  C   3.32819347750224      3.30292633265105      0.33210951729116
  O   4.23364570177474      3.48031190347651     -0.73518858968946
  C   4.69918747924942      2.73502785557030      0.37563373125081
  C   4.54209955268110      1.26878181910449      0.18027371964319
  N   5.53399740216453      0.48068588392416     -0.00013333578866
  N   5.22761300067660     -0.79623707475649     -0.29698418052738
  S   3.85406968378356     -1.58233673784363      0.22225366542968
  O   3.71901045190788     -2.73645212438811     -0.60006784538197
  O   3.85551587925794     -1.71141702557852      1.64148128801403
  C   2.98436180684657      4.51867428287173      1.11962510818635
  O   1.97033124392341      4.64495405397444      1.73864236243673
  C   4.02566511084941      5.57260864231893      1.12288382712060
  N   4.84625087652675      6.37054717457517      1.15593348702385
  H   1.60290811272633      2.15930298535101      0.94659372934756
  H   1.72155365715098      2.40172717328071     -0.79934138035209
  H   5.52649890526041      3.16232749319540      0.92727121705199
  H   6.01901096246913     -1.40014393632300     -0.48006319988757
