21
Coordinates from ORCA-job 3938optt
  Br  1.23411411786886     -0.39504653321929      0.06055336972013
  C   3.10361052760942     -0.20777434303049     -0.03756332268712
  C   3.71009179835684      1.03029256451558     -0.20987983010771
  C   2.88979772312345      2.28712986571335     -0.33174927810192
  C   3.65570927096971      3.55347690063020     -0.07438816642140
  O   4.46356006267018      3.56411337496603      1.07741488276285
  C   5.12303615508138      3.60099874602818     -0.18010989043956
  C   5.84227723912897      2.35024585623572     -0.56442091499807
  O   6.92688349560455      2.38707139428390     -1.07743000789520
  C   5.11825296418049      1.05460212699586     -0.30627329510112
  N   5.89718156406502     -0.01600838399750     -0.22818924211238
  C   5.28694469888514     -1.16549456193968     -0.04663168313632
  C   3.89530974392432     -1.34958830621416      0.05227035902149
  N   3.48155372766555     -2.64740652786996      0.22339091151908
  C   4.50576894207847     -3.42755287978281      0.25959118893127
  S   6.07327469888824     -2.70917023608367      0.09327241588962
  H   2.05706385936560      2.24138634010105      0.37296605779323
  H   2.43857416394372      2.33624703603527     -1.32776972494410
  H   3.11375880269559      4.47675235526810     -0.25296110001069
  H   5.63804659880469      4.52287712408814     -0.42260574736858
  H   4.41818984508979     -4.49815191272384      0.38751301768649
