23
Coordinates from ORCA-job 3940optt
  Br  1.95437673239233     -0.18180826838262     -1.59866619869379
  C   3.37262520829250     -0.10231648888742     -0.37418803361340
  C   4.12961571973707     -1.18043619844122     -0.10359690161873
  C   4.23891555197427     -2.54574129575071     -0.76005333584556
  C   5.61643185699917     -3.10374449843075     -0.32179570039905
  O   6.71502894087836     -2.91124775630712     -1.29927916070563
  C   7.53693348714390     -2.00268423597059     -0.74043370533137
  C   7.29085231119897     -1.64458013649083      0.52268055040909
  C   5.99242013525466     -2.23212957692975      0.89715788385505
  N   5.15589294249599     -1.03686867005682      0.80448393344071
  C   5.85877561198650      0.18710833919070      0.81441546996214
  C   5.14303215715110      1.31038094028723      0.64122643328979
  C   3.73120215927015      1.22572725490072      0.20299714450124
  O   2.99976900548128      2.18847912017965      0.14018347707692
  C   7.26781720973998     -0.19586748553072      0.47983335956712
  C   7.88476324562205      0.12742291036437     -0.69377681382229
  O   8.11678992753848     -1.01609277830098     -1.45264236732518
  H   4.15546762105321     -2.44415037271701     -1.84228731034783
  H   3.44738842666863     -3.22369770930124     -0.43532301207984
  H   5.58789567812514     -4.16947933364071     -0.11815864613457
  H   5.87983411135068     -2.72942886276893      1.85942482344304
  H   5.60352828451275      2.28721412081680      0.61040176801353
  H   8.12864367513277      1.05194098216796     -1.18760365764139
