27
Coordinates from ORCA-job 3947optt
  Br  1.97218806045585     -1.18356493714699     -2.15300578044699
  C   2.74909215573119     -0.23500646332016     -0.73960972718656
  C   2.95836178734802     -0.73125515240284      0.48598677193424
  C   2.67308409164870     -2.13352833305941      0.94971171110723
  C   2.85224934233373     -2.05824582170229      2.46898814827063
  O   1.62345813295780     -1.63744070994844      3.03343737420770
  C   1.90310241822174     -0.98502942873081      4.26535912728011
  C   3.31274062094793     -0.36721951576357      4.12935027596945
  C   3.78899225056592     -0.85528992882831      2.75825478752757
  C   3.49524738756508      0.04561945564888      1.58529953122065
  C   3.55058446171916      1.38464760903656      1.52956720045344
  N   3.24756528948657      2.05039200707544      0.36131164671328
  S   3.38967148657940      1.34718479490849     -1.13084442844775
  O   2.53539316415997      2.08725498924139     -2.00248883229325
  O   4.77058970046295      1.19427622962187     -1.45158801905974
  C   3.32590660241061     -3.30905589960322      3.07549442310889
  C   3.73398050046080     -4.31879974050270      3.57309627273432
  H   3.38499086803292     -2.82998049828417      0.50183814639982
  H   1.66670481184479     -2.46605251141612      0.69666309209669
  H   1.87728505582720     -1.71211215208284      5.08101626633194
  H   1.11937135367341     -0.24721094841673      4.42417160926102
  H   3.97167986073192     -0.73037353982672      4.91599684921685
  H   3.29183760290845      0.71988966932722      4.18881510759100
  H   4.83639429910076     -1.15876878747741      2.76431972821874
  H   3.79770663251510      2.00560179375866      2.38131037163119
  H   2.96468075916173      3.01924936981668      0.35526040567969
  H   4.09014130314826     -5.22318154992244      4.00628794047979
