25
Coordinates from ORCA-job 3952optt
  Br  1.15217820623355      0.20363309640366     -0.17622872987562
  C   3.00344976438141     -0.03103554633949     -0.10931838131480
  C   3.56420556518403     -1.24722285995147     -0.13888993467365
  C   2.76809517461840     -2.52966830048669     -0.23887808442509
  C   3.72331543158534     -3.64135535646017     -0.58441202608997
  O   3.24422344700475     -4.93474856465049     -0.37107485457641
  C   4.38615275757057     -5.80012846062989     -0.24535128784163
  C   5.62620962466477     -4.89597168229365     -0.05659505115764
  C   4.97600277358168     -3.56199143434327      0.28663139907352
  O   5.73505423458669     -2.43169863767710     -0.06822030349348
  C   5.03203589726681     -1.25719862768415     -0.05417443743019
  N   5.77923002001394     -0.23039554654393      0.00423388025043
  O   5.17472225037720      1.00021813780907     -0.02788297299621
  C   3.81546077664951      1.18672055906849     -0.01943556219863
  N   3.32443477595127      2.34182033088129      0.04139236903360
  C   4.61938083677978     -3.51044860356521      1.72215824132678
  N   4.33755843410610     -3.46621530658949      2.83143701758269
  H   1.98158912665173     -2.41874242576828     -0.98419512147185
  H   2.28604168612161     -2.73541196439039      0.72185788139798
  H   4.08211451649084     -3.51248280555773     -1.61681884184219
  H   4.47576989359999     -6.41835442633294     -1.13890063326343
  H   4.21004000533146     -6.44211431995317      0.61584605118493
  H   6.17611742555185     -4.76036213484399     -0.98723798215249
  H   6.30547038321176     -5.25818367736179      0.71021292231723
  H   4.05514699248489      3.04933855726083      0.09584444263611
