26
Coordinates from ORCA-job 3956optt
  Br  1.19573207128761      0.47746202703174      0.28588281445179
  C   3.05938100380966      0.22628754347279      0.20624495600413
  C   3.63460219712226     -0.99415471016290      0.34154066037033
  C   2.79664027623220     -2.22860958589023      0.55682263815180
  C   3.47773505234193     -3.59205696354454      0.49253100332000
  O   4.28186315101716     -3.70539396972153     -0.65757929725534
  C   5.63279023711916     -3.34312113640390     -0.43996004920601
  C   5.71748216166349     -2.27666507370657      0.64688654544538
  C   5.19171205236345     -2.93099838394419      1.94378122312413
  O   4.20942478152411     -3.89992636841404      1.65463203866901
  C   4.69780408988171     -1.93969808885378      2.92177721966464
  N   4.30411782131560     -1.17196507799591      3.67466604370374
  N   5.00465478227763     -1.06352276950325      0.27268660583759
  C   5.77534317441019      0.04180536077942     -0.20220325202676
  N   6.94782213720182     -0.04979246363593     -0.68278986083642
  N   5.18213807223829      1.28635601425615     -0.07677073745663
  C   3.91314602109288      1.36467474659998      0.09674523859274
  H   2.04024521392068     -2.21936170568117     -0.23026979787464
  H   2.25629986477280     -2.13779655153164      1.50304934462165
  H   2.71398562097186     -4.36316170645106      0.41886488360884
  H   6.01910538145423     -2.96437969516367     -1.38539738639628
  H   6.21695540496016     -4.21801936828275     -0.13735097770621
  H   6.75171647054276     -1.98515756465993      0.82068984098390
  H   6.01981506119968     -3.46629409217815      2.41069992302304
  H   7.26248765873454     -1.00442443005354     -0.81341686339184
  H   3.47500024054404      2.35591401363862      0.18023724257741
