24
Coordinates from ORCA-job 3963optt
  Br  1.52127095408268      0.88286323892535     -2.29316740846065
  C   2.99156822180266      0.52738334288359     -1.18221885533018
  C   3.12335452903099     -0.63026225099282     -0.49197487710942
  C   2.10106654336425     -1.73307033218109     -0.57840823722480
  C   2.61816546609734     -3.13869855809033     -0.23341824432979
  O   3.19525974074840     -4.19150189374288      1.92818073394626
  C   4.57444120517060     -4.12403003654137      1.57193690571019
  C   4.79871817349102     -3.04292939960347      0.54701465813332
  O   3.99211870386874     -3.27636281818426     -0.56333418938531
  C   2.26440835391306     -3.56630396177010      1.19252315190530
  O   1.15550405259230     -3.42759349881747      1.61074208172126
  O   4.44604261366916     -1.82839920646484      1.18062700634972
  C   4.29327246083168     -0.74891166194834      0.34718169134012
  C   5.19356175041318      0.23897231101255      0.39426319650404
  O   5.06107040600756      1.36910412155234     -0.31150088246002
  C   3.97122477976089      1.61737552685891     -1.11679051607633
  O   3.91320350172813      2.66328718073988     -1.68571610048659
  H   1.72399243459325     -1.74410170107886     -1.59936354820698
  H   1.24604029750823     -1.49814520007663      0.06174529684070
  H   2.08520863648190     -3.85652115812586     -0.85908433786471
  H   4.88767562991986     -5.08411400023466      1.16176632776172
  H   5.12634074781588     -3.91343648370014      2.48663700691950
  H   5.83012412637158     -3.01322431285491      0.18937144106587
  H   6.07736667073656      0.21762075243541      1.01498769873677
