25
Coordinates from ORCA-job 3967optt
  Br  1.26101300034032      0.03158430573548      0.35116234379428
  C   3.14903718002432      0.03152287776033      0.15615924650254
  C   3.79071351783255      1.20112885892180     -0.18832844184050
  C   3.24482295752665      2.56630507650135     -0.49257871971702
  C   4.49850333945406      3.43393662775351     -0.65982270172595
  O   4.71510877600571      4.26181835726581      0.49894715012893
  C   5.92556753155602      3.92347151206401      0.98847506391046
  N   6.58806908707995      3.00294255232691      0.43945919196500
  C   5.74206227443959      2.49776422572772     -0.64942371922630
  C   5.17618033142085      1.13942581653269     -0.31904805673488
  C   5.84253064192570     -0.04554745733058     -0.12179922521818
  Br  7.71296157877162     -0.14811079402491     -0.33281950438664
  C   5.08663871311378     -1.18541200253505      0.22980555834035
  N   5.70491461791183     -2.39068242466237      0.44314129326143
  C   5.13724354922683     -3.62087689871178      0.79276429139643
  N   3.93547689915475     -3.93776857027645      0.98687181648030
  N   3.76488139399688     -1.11189348986204      0.36255080665546
  H   2.60856508078272      2.95351882447067      0.30397567790212
  H   2.64688261966446      2.55119505490793     -1.40621647766119
  H   4.44680814620787      4.09311827755767     -1.52370824913454
  H   6.24174957980198      4.49546443165989      1.85143634659472
  H   6.30780351582684      2.48257506180566     -1.58176654199393
  H   6.70685273396754     -2.38664642558177      0.33809685680989
  H   5.91509350662526     -4.37673712282431      0.89788760280528
  H   3.31051942734188     -3.14509667518218      0.86177839109191
