25
Coordinates from ORCA-job 3969optt
  Br  1.64881356258701      0.85922908240078     -1.74263741720190
  C   3.29495074277573      0.46343864438740     -0.94158999639455
  C   3.86680292875084     -0.74487870009504     -0.99469954318512
  C   3.42185380373891     -2.03763361363004     -1.61232470278758
  C   4.33930812488935     -3.05800076933559     -0.94345005345602
  O   3.78133726386072     -3.45754614187639      0.30746870946878
  C   4.71927040762643     -3.47631774809720      1.30189323500049
  N   4.50437151280510     -3.83537451139507      2.48108942342237
  C   6.04264128414268     -3.00409354842909      0.75480869156789
  C   5.64653707541589     -2.30903542524069     -0.55010947262417
  C   6.66033762794702     -2.35762973379537     -1.59672908615150
  C   7.48636338822324     -2.39970278722726     -2.46215008648027
  C   5.14497296989271     -0.88175841573555     -0.36109613904716
  C   5.74688364659434      0.13533541681236      0.27609716806037
  C   5.09386902119771      1.43035843437658      0.33704643835378
  O   5.48262161685335      2.42231371924538      0.86828090787635
  O   3.84831399012825      1.50188770673869     -0.32071404591141
  H   3.58644789536710     -2.03551047151879     -2.69255702755905
  H   2.37395486397974     -2.26873243116477     -1.42560607440027
  H   4.53307313943922     -3.94004770315100     -1.55386524948459
  H   3.53906371714735     -4.13599697420208      2.60845917022892
  H   6.67533104828989     -3.86777855867342      0.54499561492732
  H   6.55735573797336     -2.36151777371395      1.46412937699889
  H   8.22370054507009     -2.43283740431466     -3.22875622415175
  H   6.71082408530392      0.05982970763475      0.75901638293018
