26
Coordinates from ORCA-job 3971optt
  Br  1.43375706675139      0.53865079098446     -0.69146526923958
  C   3.09324718713118      0.06981567912358      0.02489054821768
  C   3.56952950202842     -1.18242500684669     -0.01035272335981
  C   2.83317898091539     -2.34275416180889     -0.61495769590300
  C   3.73302446655187     -3.55176323873896     -0.76262259201791
  O   2.90140933077952     -4.67922231645453     -0.98442573309098
  C   3.49124252090757     -5.92286344399086     -0.95835066469013
  N   3.12717585949226     -6.83353761106048     -1.73950068903706
  C   4.49770141773397     -6.15562104488980      0.13756921579718
  C   5.43226781150628     -4.96744638553897      0.35639707671592
  C   4.59292756928092     -3.71854688715766      0.47741909843991
  O   5.46106126236881     -2.59574388185778      0.58398992592753
  C   4.87541929019420     -1.37927461311195      0.60669365973736
  N   5.57588229097585     -0.46591875488926      1.15994173163956
  O   5.06823011746141      0.80687085063804      1.15921447861304
  C   3.85412238553530      1.16139359947329      0.65251280843934
  O   3.49835524197251      2.29549764748211      0.74405184822181
  H   2.39656563388857     -2.05048186268369     -1.57014106360098
  H   1.99863234815726     -2.61124167765220      0.04166436028988
  H   4.40905931934518     -3.42475012592662     -1.61762338205002
  H   2.40794304071371     -6.49532884203888     -2.37878373034473
  H   5.04418143475388     -7.06493973375882     -0.09670387248730
  H   3.92649788618207     -6.34014130550267      1.05276116676276
  H   6.11161627101080     -4.84660805093058     -0.49103117145287
  H   6.03935699440490     -5.10754817438606      1.24991613162846
  H   3.94961476995674     -3.77007144847611      1.36593653684396
