24
Coordinates from ORCA-job 3972optt
  Br  1.88738170090620     -1.08877820488054     -2.21780781699651
  C   3.02215305053751     -0.45588398859649     -0.86454500030015
  C   3.00656272811016      0.80188960040830     -0.39290784214544
  C   2.20811412398441      1.88816725219061     -1.08694223096352
  C   1.03557658893766      2.55874848796277     -0.37158487561416
  O   0.04718516311692      1.66528163256848      0.14380995124275
  C   0.19522261582543      1.57605337832766      1.50944598771207
  N   -0.54033115911545      0.97622153876851      2.31366182813221
  C   1.48603438249505      2.29056266410056      1.73810648115718
  O   1.53349960792692      3.24808236709162      0.74770597638326
  N   2.48315195827609      1.86119906957936      2.35395353312424
  C   3.76616910876210      2.19765911197568      1.72711833187049
  C   3.94252399865510      1.05387507530072      0.73349073046973
  N   4.87562011553742      0.25308824826807      1.07201043226227
  O   5.02584405622080     -0.91539933407265      0.36472092440087
  C   3.99166660471365     -1.44193013387137     -0.36518657751566
  N   3.95436832758589     -2.66497564014098     -0.64650865997696
  H   1.84673161563102      1.49408748103453     -2.03369155894132
  H   2.89301100364365      2.71013779451490     -1.31860278577062
  H   0.54037985025663      3.26087111362765     -1.03940834158547
  H   -1.32372259288840      0.52396120308662      1.84457427076022
  H   4.56857482856961      2.12888349123293      2.45398949299695
  H   3.77742854049765      3.17138506221889      1.23841065717569
  H   4.72985378181395     -3.16118727069584     -0.20981290787814
