24
Coordinates from ORCA-job 3973optt
  Br  1.19303051201877      0.28273971160486      0.08413838588879
  C   3.07434473826541      0.10559763522285      0.02923953998705
  C   3.64778884912982     -1.12362843365085     -0.07563741237255
  C   2.73313571145555     -2.33902940729891     -0.19801328199553
  C   3.52277793146551     -3.56229184821409     -0.56813478373656
  O   2.85602370078843     -4.80311676740279     -0.31194108809083
  C   3.81195477110747     -5.77090473470860     -0.14583913240184
  N   3.63467123292644     -7.00579627239719     -0.11985489078540
  C   5.16403049624932     -5.07093548791697      0.04873395069307
  O   6.24689038846645     -5.56227065058774      0.00656258808550
  C   4.77585570623393     -3.63325296972269      0.27389231594552
  N   5.64851760703409     -2.58726794544877     -0.13845306851041
  C   5.10027498565274     -1.28939909906406     -0.04254627595729
  C   5.93912123057000     -0.23641149198009      0.04484193367809
  S   5.50363787906167      1.41463230832048      0.11623358430110
  C   3.73995537024231      1.41201347121030      0.11794881066952
  O   3.17380819421982      2.47328971844195      0.18135301007383
  H   1.95192893792596     -2.13217555253648     -0.92782121644040
  H   2.23281838257360     -2.50548468885959      0.76143591896016
  H   3.81444957211534     -3.52901954177208     -1.62299475065628
  H   2.65553750911658     -7.25221073964610     -0.26804847105929
  H   4.46415077333010     -3.57369469884641      1.33392977689322
  H   6.60219101389489     -2.66680697326535      0.18458547376219
  H   7.01010450615577     -0.39757554148165      0.06638908306834
