23
Coordinates from ORCA-job 3975optt
  Br  1.05166194308307      0.04733031987332     -0.05149839043439
  C   2.92040146656498     -0.06536378565704     -0.06091710303105
  C   3.60413437056430     -1.24004897101087     -0.06897498914469
  C   3.15865985643926     -2.58756272441105     -0.07282717740048
  C   4.30478098688213     -3.33558696393943     -0.07820056294427
  O   4.37400510021352     -4.67150714907790     -0.08251349059971
  C   5.62789780345820     -5.30042493479033     -0.08594610850183
  N   5.66607077449081     -6.55726670380948     -0.08975885554047
  N   6.78686332868861     -4.53790771286022     -0.08482523815908
  C   6.73539737914659     -3.25340205341123     -0.08156755738703
  C   5.49227844151553     -2.53129213641448     -0.07831674515358
  C   5.08268361920590     -1.20771520476248     -0.07295181387628
  C   5.70892136568443      0.06923884475381     -0.07019575418730
  C   7.16141098029556      0.31316779770721     -0.07535239691846
  O   8.00871336292177     -0.53751122045402     -0.08380649466019
  C   4.92924655578501      1.19558308006759     -0.06279703060001
  N   3.58004979977538      1.12506127858236     -0.05832002117624
  H   2.14080821279757     -2.93745587931160     -0.07165174011367
  H   4.72281022029893     -6.93904797565694     -0.08996225648591
  H   7.67377504851387     -2.71455584451878     -0.08096206018346
  H   7.44075162945395      1.38468121972700     -0.07117756336515
  H   5.35175535957560      2.19023400753203     -0.06021694042449
  H   3.03392239464498      1.97335271184255     -0.05225970971227
