27
Coordinates from ORCA-job 3976optt
  Br  1.15591091000747      0.25838916981578     -0.64579447591331
  C   2.95897003281579      0.04700625880980     -0.11511940124743
  C   3.53289989551993     -1.22284447278064     -0.03712963911521
  C   2.76806758099418     -2.46796772843614     -0.39374412833465
  C   3.68416511583435     -3.64245625379033     -0.66546993998177
  O   2.85497371828383     -4.78395930324370     -0.79489448229274
  C   3.41539906618992     -6.02130049069630     -0.82299138881531
  N   2.75123690710023     -6.93258413130165     -1.39353168446886
  N   4.60572402560674     -6.15876310860919     -0.13526587722481
  C   5.51607901865529     -5.06402865968783      0.16101279991560
  C   4.69798865867458     -3.82435209148084      0.44601078359893
  C   5.56783282022966     -2.58920589946924      0.56236745887372
  O   6.74731369061090     -2.66218137811492      0.76915968409711
  C   4.86163890628921     -1.26314881763736      0.40337775214771
  N   5.58379874384480     -0.18841015334156      0.71265267806187
  C   5.01071171056408      0.99596665966414      0.61096941686240
  C   3.69101050964763      1.17113139378462      0.20528625712898
  H   2.13488887559657     -2.28682825190095     -1.26188254854224
  H   2.09665469496988     -2.73792971627921      0.42832024474333
  H   4.21879441950970     -3.48354872591860     -1.61258393966824
  H   3.20979349455212     -7.83484467444489     -1.31578121714935
  H   5.03976081940300     -7.05690333940527     -0.27114142527418
  H   6.19453594947484     -4.85524128830214     -0.67386836836777
  H   6.12962708358546     -5.32873001541201      1.02048371606295
  H   4.14519030526833     -3.93868842271256      1.38743028797115
  H   5.61789739050206      1.85628995630044      0.86970584739522
  H   3.25313565626937      2.15713348459058      0.14342158953693
