22
Coordinates from ORCA-job 3981optt
  Br  1.14420980762662      0.34571353957946     -0.24976568617176
  C   2.94219044197636     -0.04251649607936      0.06332864950614
  C   3.45484183753771     -1.28059081004286     -0.04146679313115
  C   2.59326383446737     -2.46111816442302     -0.42340718049163
  C   3.26744665452428     -3.82810350925823     -0.47841673940398
  O   4.26229500044637     -3.88563100506166     -1.50586850393604
  C   5.44879850781399     -3.29795731356430     -1.26779489592582
  O   6.29162146080126     -3.22603790507830     -2.10131697926854
  C   5.59122438881278     -2.73222547328057      0.14506361790759
  N   5.05846372522007     -3.68757852025857      1.09716022096665
  C   3.82515465931562     -4.21501523120356      0.88866618812141
  O   3.20283355908578     -4.88100551730284      1.67587725241366
  C   4.88298030932785     -1.39341552049560      0.22421894141808
  N   5.64596236946453     -0.41961425840511      0.54741770982411
  O   5.10224596814205      0.82251347259429      0.65644293402092
  C   3.77861156115126      1.10881566467544      0.43441152197840
  O   3.41097149238166      2.23330693001108      0.55627095244329
  H   2.14835258583150     -2.25848565269655     -1.40118201673717
  H   1.76162276128555     -2.52476469451064      0.28396682167595
  H   2.52779838431943     -4.57666273569473     -0.74703624255572
  H   6.64824411473510     -2.56509097741781      0.32679060709989
  H   5.48086657573282     -3.78753582208654      2.00863962024574
