22
Coordinates from ORCA-job 3984optt
  Br  1.01491303699227      0.25299181802408      0.08213839650336
  C   2.87692509215657      0.01152335135851     -0.02934244709118
  C   3.40917424481450     -1.27703803820605     -0.08375917644999
  C   2.51865695478166     -2.50911447749694     -0.15318177245505
  C   3.43961534648153     -3.61534614723971     -0.58499849837046
  O   3.03890171043798     -4.96734338180786     -0.42970436801294
  C   4.17316551949750     -5.69231563138980     -0.21355954078584
  O   4.24774758674831     -6.86511990301337     -0.24862769066168
  O   5.21933683147672     -4.85138152384970      0.06803917763032
  C   4.66712573117663     -3.58358966459017      0.28165252801559
  O   5.50172889280336     -2.54081642201488     -0.11328990700768
  C   4.80815582025915     -1.35934306471864     -0.11405252303385
  C   5.57675432949030     -0.19533598870640     -0.14096824252987
  N   5.04710890939279      1.00832814719432     -0.11605590590479
  C   3.72114859256398      1.11941242074924     -0.04722262486283
  C   3.18823200259432      2.45821064396880      0.00695934247322
  N   2.75811358631463      3.51946120388681      0.05011043705076
  H   1.71063831964926     -2.33962490385860     -0.86319763765570
  H   2.06761087120088     -2.71488503371707      0.82063728724530
  H   3.75079276783593     -3.45908331220734     -1.62370780526551
  H   4.42569549866224     -3.46715007019868      1.34653875485875
  H   6.65645835466943     -0.27744002216654     -0.18240778368992
