20
Coordinates from ORCA-job 3988optt
  Br  1.52608636931811      0.08516916883783      0.01601239326072
  C   3.35390775035800     -0.34629341213747      0.00485987878165
  C   3.76837757741161     -1.62480521940592      0.11858376537503
  C   3.06487098623437     -2.88341193882735      0.24533679161106
  C   3.98694584192198     -3.85409934258753      0.32088602622915
  O   3.79105117739239     -5.16641044411471      0.53455166196151
  N   4.37499447531723     -6.00956127198415     -0.47119633892889
  C   5.63665573659649     -5.99724532527788     -0.46308512845907
  C   6.52654512643355     -5.21412986576039      0.48194988968092
  O   7.28606186560643     -5.80470607000834      1.19044304991294
  N   6.47713248200320     -3.82143559301020      0.39535691059947
  C   5.34503737503754     -3.26655353992757      0.26677317343225
  N   5.13944165866884     -1.89201381773518      0.10745831642058
  C   6.10579904945983     -0.88961572820382     -0.05716212125634
  O   7.28582160745910     -1.09335915878459     -0.12308759616294
  C   5.48899334506892      0.45677335833484     -0.14786085231131
  N   4.23145840317338      0.69651852224522     -0.12182297782002
  H   1.99304703168748     -2.98629501632159      0.28268920394187
  H   6.11289845326502     -6.66497264962157     -1.17470104468890
  H   6.18787368758649      1.28044734429039     -0.24798500157969
