20
Coordinates from ORCA-job 3989optt
  Br  0.87412871719829     -0.10200646355572     -0.07266871640932
  C   2.74361068416667      0.00287541329532     -0.07380568611335
  C   3.39850769677703      1.17641142937828     -0.07547052327005
  C   2.93407480356379      2.54617946808866     -0.07666094058911
  C   4.04240114706340      3.32926002024107     -0.07753099431906
  S   4.08171729201329      5.06015653449290     -0.07903707209274
  C   5.78573112210945      5.36716347545368     -0.07883434062003
  C   6.79268389949751      4.48631458411204     -0.07806414133539
  Br  8.56898785897659      5.11977844227044     -0.07785975217895
  C   6.64127826777244      3.00910928145064     -0.07742425203731
  O   7.59379589055995      2.26361292247605     -0.07685622445421
  C   5.26176698424810      2.51859149530588     -0.07710244053398
  C   4.85294631087329      1.22211302238853     -0.07603276066584
  O   5.66475851246133      0.15089494785019     -0.07536838035485
  C   5.24071761097287     -1.13674937859459     -0.07413732624938
  N   6.02145652098990     -2.11116064130358     -0.07336071686018
  S   3.50839569632103     -1.54507322220626     -0.07269368596042
  H   1.90195053548521      2.85432498758005     -0.07674986614546
  H   5.99657541253064      6.42946136417958     -0.07938444666789
  H   6.99651503641918     -1.81425768290318     -0.07395773314246
