20
Coordinates from ORCA-job 3991optt
  Br  1.06063360890165      0.43636465005936     -0.01657024320858
  C   2.91007568431552      0.11633244003326     -0.01025256145569
  C   3.45094134840564     -1.11782731244587     -0.00838580732376
  C   2.92343728185506     -2.48362372756120     -0.01023725639485
  C   3.98505675249422     -3.31516036976477     -0.00761288770884
  S   4.07100808716885     -5.04121586074642     -0.00838163931527
  C   5.82193305307391     -5.22713429832184     -0.00451667215012
  N   6.75062526473573     -4.34762128298332     -0.00132763191956
  N   6.45358991435300     -3.04127588056963     -0.00089644989498
  C   5.22422131168397     -2.51188112657757     -0.00380578512419
  C   4.88214262069086     -1.19303586782932     -0.00420013185945
  C   5.74771099576277     -0.03927338515349     -0.00209061637492
  O   6.96095048766775     -0.14378138001762      0.00051848717190
  N   5.10550508496297      1.21853989081230     -0.00350354513021
  C   3.82080153558992      1.25975340971993     -0.00724392366829
  C   6.22479281156263     -6.60634868039645     -0.00546276646314
  N   6.47722805559292     -7.72448047033883     -0.00683169708148
  H   1.87867975213265     -2.75129528339375     -0.01319106878331
  H   7.24225845530896     -2.40006923017769      0.00136105634117
  H   3.35640789374098      2.24403376565295     -0.00836885965644
