20
Coordinates from ORCA-job 3993optt
  Br  1.55201795195790      0.12025854807071     -0.14950277364998
  C   3.32643316116944     -0.44181639082907     -0.05873517165064
  C   3.70425282952826     -1.72881921247260     -0.05907603706003
  C   3.01204159020130     -2.99095329530365     -0.10007456437995
  C   3.89198452084702     -4.02321019645566     -0.04015189538660
  S   3.31979149675366     -5.67581806842504      0.04902031499719
  N   4.97151072711459     -6.17031212407052      0.53433517511275
  N   5.68118407747273     -6.05693011455551     -0.45104721809103
  C   6.93894495158757     -5.42976257892940     -0.09664489993103
  N   8.10611703292379     -5.87635953811305     -0.03358203881496
  C   6.55985346164254     -4.00635501212667      0.01958696220540
  C   5.31075039303529     -3.49591776567203      0.01903247384783
  C   5.11604812306711     -2.02287052254818      0.03853149498448
  N   6.05291646589791     -1.16679431184456      0.12582939257948
  O   5.67194381989498      0.14564170156606      0.11900903093056
  C   4.36277737491929      0.59319536273176      0.02798718287479
  O   4.18358606177232      1.77039747132336      0.02834824085157
  H   1.93703030420703     -3.08628869070300     -0.13750352794551
  H   8.14414754023719     -6.88510876306732     -0.17462793257288
  H   7.38766811577004     -3.30617649857560      0.05126579109856
