23
Coordinates from ORCA-job 3994optt
  Br  1.33572131071643     -0.28253317327091     -0.55519969437146
  C   3.17345044779455     -0.04936201758525     -0.29537766003407
  C   3.77958485248886      1.15513927003065     -0.12756504019178
  C   3.07163770019647      2.40355848438658     -0.09107472818495
  C   3.74296291029709      3.55504247581845      0.07532449115705
  Br  2.77017417541222      5.17630810292434      0.18382459403927
  C   5.18730936293804      3.58437244844570      0.19413363354524
  C   5.91144820538453      4.89021035040502      0.29627797449847
  C   5.92239627759484      5.66767405334731     -1.00661847247408
  O   5.52585519348709      5.24170503063440     -2.05111091871096
  C   5.87229744644516      2.41983734916766      0.17557896299820
  C   5.22506991848257      1.14041412074309      0.03626496178726
  C   5.87960216402651     -0.05574936433364      0.04594749152144
  Br  7.74481279973785     -0.17209524251622      0.26706819458098
  C   5.19109261694642     -1.32604458776459     -0.09130719743944
  N   5.59953628865836     -2.51297026082773     -0.06324496429722
  O   3.81213840202977     -1.19865462330969     -0.29820788454923
  H   1.99583517335228      2.39890147598770     -0.18913476395124
  H   6.95558021748799      4.72963989180519      0.57861052979401
  H   5.47548391513062      5.53699797391317      1.06241014587122
  H   6.35362974541344      6.68372564506085     -0.93069931735564
  H   6.94956899683153      2.43570940013915      0.26351788853778
  H   6.60281187914734     -2.55282680320126      0.08158177322913
