21
Coordinates from ORCA-job 3995optt
  Br  1.74519840399891      0.50636806988055      1.69378821323299
  C   3.26711353243858      0.39029580776456      0.60485953606281
  C   4.03198002148586      1.45257564160617      0.25896115597440
  C   5.18747120942827      1.22695137424606     -0.56416870784609
  C   5.53611181258287     -0.03245473371091     -0.93580228185007
  Br  7.05186070978373     -0.46556292677964     -1.94491884325617
  C   4.72312848486518     -1.19375005187401     -0.55786605018166
  O   4.93916898359441     -2.34435625881605     -0.84364977360495
  N   3.59191825282269     -0.85552361610982      0.19046185599783
  C   5.91602485054253      2.44258147731713     -1.06002905779639
  N   6.19898993458072      2.66452811605996     -2.26876114661303
  N   6.34784019110252      3.38927004334136     -0.12821402947608
  C   6.00599929577817      3.69340278329690      1.17525771074741
  O   6.70111069432056      4.35999396971060      1.87489460264042
  O   4.81701632992536      3.22751171619033      1.63394680317416
  C   3.80202605704773      2.81597045352083      0.78690454406972
  N   2.82120827013125      3.57202486413219      0.63639858329208
  H   3.01109074164070     -1.64158964984601      0.45374405629374
  H   5.92379240457843      1.89797005143233     -2.87581567963477
  H   7.07002414828926      3.99698051631602     -0.49256528623787
  H   2.11692567106221      3.14281235232141      0.03857379501152
