26
Coordinates from ORCA-job 3997optt
  Br  2.16395830787742     -0.33415089312946      2.43494747860064
  C   3.06889700753469     -0.08014151062598      0.79150143132917
  C   3.28865138850371      1.17001693354196      0.27882166873338
  C   2.68599995592182      2.35170582534208      0.90140487574416
  C   2.85409031340334      3.59649516482032      0.44170938636553
  C   3.80085146929405      3.92232065755584     -0.62854554657729
  C   5.25016847453148      3.57234546850547     -0.39248283866295
  C   4.43727636400358      2.74435081454864     -1.34152373204048
  N   4.55574460759561      3.06588795881651     -2.74626944746384
  C   3.61026362481434      4.16633228270997     -2.99873808709315
  C   3.51432516047662      4.97677285106482     -1.69108052252790
  C   4.03285488112927      1.36598192824451     -0.95585996229878
  C   4.37776883159639      0.34898821240432     -1.76473521895722
  S   4.14181788641058     -1.31193594949182     -1.44496977788829
  C   3.45335005969482     -1.35734515737236      0.19182301201622
  O   3.29473959922034     -2.44195962609923      0.69305225009966
  H   2.00942515842591      2.17993253424402      1.72424103159856
  H   2.28566617809804      4.40726499103522      0.88421564034726
  H   5.49484537860373      3.14523183060045      0.57140296239207
  H   5.99643018585094      4.22653593611423     -0.82612011785829
  H   5.50098341406983      3.35501554244420     -2.96581143874654
  H   2.63492269113882      3.73322827266134     -3.22903848206739
  H   3.92951961772622      4.75329960886428     -3.85904145017509
  H   2.52803767323506      5.42152750300942     -1.55757024882614
  H   4.25343152451785      5.77942902824325     -1.66295307607954
  H   4.86298024632551      0.55586979194798     -2.71037978996374
