24
Coordinates from ORCA-job 3998optt
  Br  1.06321646555132     -0.00074223222366      0.16832310447560
  C   2.93136304007791     -0.15337006647051      0.34124629007279
  C   3.60787639958705     -1.24733674942299     -0.04585891188982
  C   3.29779239821199     -2.45942377203801     -0.82767236430068
  C   4.42623528015344     -3.09978148751024     -1.18562179056221
  C   5.63720403241515     -2.46235270917845     -0.54166463984789
  C   6.12457669529917     -3.15935655191313      0.73286859198530
  C   7.37165391212821     -2.79735259572989      1.02540037037329
  C   7.93792326970183     -1.94084266274452     -0.03546352990074
  C   7.20757955950123     -0.62166807461988     -0.44123123202673
  C   6.96010296265750     -1.92472121391181     -1.16881645560804
  C   5.90722370546961     -0.20639625061026      0.15846922756892
  C   5.03293144997206     -1.20575842374823      0.00022848148241
  C   5.48531428897067      1.08112307663536      0.67342396634407
  N   6.16518757943796      2.10922424557769      0.96701344576548
  S   3.70835378346577      1.27932912964163      0.96161701876925
  H   2.29344772124593     -2.75909302823454     -1.09043681346754
  H   4.45657379874146     -4.01407404178883     -1.76202205072404
  H   5.44610783647008     -3.71487371576559      1.36622522870987
  H   7.89964855049006     -3.04592884943714      1.93512474768603
  H   9.00321756354027     -1.93613249141182     -0.22074387882226
  H   7.84947394445214      0.13529943080032     -0.87156592634526
  H   7.24089889098939     -2.08828238509475     -2.19953095340743
  H   7.16109687146976      1.93351141919927      0.84368807366965
