28
Coordinates from ORCA-job 3999optt
  Br  1.02648389336179      0.32094404685653      0.26751793238390
  C   2.89242504538831      0.08144585031188      0.26969431036140
  C   3.48180072936612     -1.12330826435341      0.42938944433588
  C   3.07121523059573     -2.57681431756317      0.33608843008609
  C   4.29944660747902     -3.20868320327234     -0.39585365564064
  C   5.50590861129825     -2.40851787127686      0.16176791662724
  C   6.13244854730049     -3.05563179319752      1.40778005769017
  C   7.25951299356395     -3.88693162540813      0.78335966869050
  C   7.79977868668562     -2.99183312747407     -0.34753953105333
  N   6.68402552396412     -2.08911504523711     -0.64566380154049
  C   6.92169678933340     -0.69779944553864     -0.65230545526328
  O   7.95525669838744     -0.19061085163678     -0.99133163410133
  C   5.65275001208377     -0.06697005094184     -0.15319152930974
  C   4.87747787025135     -1.07489731435732      0.28280096584238
  C   5.04655791512314      1.24793011496626     -0.27404395853519
  O   5.52882209902844      2.30393550682888     -0.59377793746085
  N   3.64765480266339      1.19334355244947      0.03481852310344
  H   2.14056305992694     -2.71607476262377     -0.21184502593392
  H   2.94261784580864     -3.01972200673252      1.32696308728193
  H   4.21443855681116     -3.02646647414184     -1.46815982443862
  H   4.38275085879452     -4.28228725937199     -0.22649490605255
  H   5.42375839624280     -3.64765750559292      1.98627301374300
  H   6.54662407526964     -2.27611206867270      2.05102285765502
  H   6.85187927017215     -4.81128904737795      0.36972302181956
  H   8.03167624748278     -4.15805037791359      1.50093625330932
  H   8.08839845179840     -3.56766935082980     -1.22578131703409
  H   8.65960016038114     -2.39504931221843     -0.03951230181449
  H   3.18243102143745      2.08489200431971     -0.07163460475131
