29
Coordinates from ORCA-job 4000optt
  Br  1.13395916410762     -0.20680460575057      0.20641708687856
  C   3.00266921535258     -0.00193428027354      0.18469004413096
  C   3.55714415299442      1.19173386569454      0.43365694988655
  C   3.02041192277359      2.59389029011764      0.49118477088993
  C   4.14717101810457      3.37515842456761     -0.23940954555583
  C   5.41428531624713      2.65962050003753      0.28113681026666
  C   5.96873609650438      3.33437941299239      1.54086676271525
  C   6.77491052500111      4.55298132038051      1.08679770399175
  C   7.90471395044339      4.14351256558418      0.15798742759620
  O   7.47007788939863      3.31799835076362     -0.94231965326384
  C   6.60817800183250      2.35926744453497     -0.61016470726598
  N   6.76849855410783      1.13118490839316     -0.91990376984164
  C   5.66259720421935      0.44573045364013     -0.39190578227480
  C   5.18915707724784     -0.77715253192680     -0.67262890323296
  C   3.84534303702805     -1.15941366020548     -0.20682442520529
  N   3.34388230629393     -2.33188331933747     -0.24767716253790
  N   4.93897677973236      1.29576636716779      0.43549639703400
  H   2.91073903467115      2.93952500726285      1.52197161388232
  H   2.05126948652365      2.67164436031769      0.00433198242638
  H   4.13622664895891      4.44096917618126     -0.01953970959539
  H   4.04660413834663      3.23788345042413     -1.31696957621969
  H   6.61281146268759      2.62789814074636      2.07052466584069
  H   5.15968535717580      3.61984043755632      2.21508291822661
  H   7.21155081510036      5.06872031026096      1.94319129021293
  H   6.12416270703349      5.26776151018572      0.57819709448950
  H   8.66157731174747      3.57505061958912      0.70631618123456
  H   8.38049476430948      5.00416141496453     -0.30476778666030
  H   5.74112497545877     -1.44586741443272     -1.31683383373807
  H   4.03304108659737     -3.00262251943646     -0.58290484431118
