21
Coordinates from ORCA-job 4006optt
  Br  1.43981113084056      0.82731163894659     -0.18093626489004
  C   3.31252488584217      0.64975866349581     -0.19364194146829
  C   4.17145782391433      1.73707544197922     -0.32152546558354
  C   5.57192387117091      1.53880131510005     -0.23302459566501
  C   6.09802251648599      0.25644597704264     -0.11235647241478
  C   5.23190688840656     -0.81430964667579      0.00445055928208
  C   3.83648195671613     -0.63478406288659     -0.01672356665388
  N   3.10060817823936     -1.79096422628421      0.12345617879057
  C   3.87957555104576     -2.80335414740012      0.23941018871447
  S   5.58834148717651     -2.49261771494517      0.19949448004717
  C   6.57508281862835      2.61155335610058     -0.28302374230440
  N   6.51269333676422      3.83285650541669      0.06908903913708
  C   5.37449036556107      4.46753083433028      0.53970490678439
  C   4.09606650196395      4.21077540980971      0.24222801963935
  C   3.62009848167547      3.10403700097874     -0.61032556775258
  O   2.76965732970047      3.27227989770597     -1.44693371968719
  H   7.17106366170917      0.11639977854667     -0.08778259854189
  H   3.52150267891249     -3.81717897205146      0.35836380266513
  H   7.55511237722804      2.27454287938377     -0.62219979525338
  H   5.60224981106462      5.34492765101146      1.13428663477503
  H   3.32632834695383      4.90391242039515      0.55998992037970
