22
Coordinates from ORCA-job 4007optt
  Br  0.80467967012826     -0.57314960055940     -0.13832929945663
  C   2.57196637670865     -0.23778636034657     -0.68217829606625
  C   3.12992070902146      1.00486939297705     -0.71657777671709
  C   2.92680346641804      2.18319853685946      0.15072774155880
  C   4.15984579806713      2.63709500610645      0.52778467302005
  C   5.19243211402700      1.83478606631352     -0.13477502849052
  C   4.52520786813217      1.02100739039553     -1.01783861871405
  C   5.27042231133711     -0.15650150639655     -1.09966394236120
  C   4.69394526155859     -1.35121572084692     -0.87533589508297
  N   3.33184723297876     -1.41539851685470     -0.82962508832860
  N   5.65497385858814     -2.16615693547663     -0.22490582972592
  C   5.92954702044779     -3.45257493772247      0.13180039963689
  N   7.08145376684459     -3.53395444455505      0.73190406917448
  C   7.60257642323818     -2.25212961589102      0.76908914874560
  C   6.75079876409487     -1.37310379298854      0.17851500557901
  C   6.39149228697537      0.01366063005172     -0.21130572808465
  N   6.34915193694250      1.19140507826853      0.37203339413567
  H   1.97348990670392      2.56137894892933      0.48449460323896
  H   4.33036164400556      3.41037832532142      1.26277245671813
  H   2.85814261478557     -2.28154176940853     -0.61826545560085
  H   5.26016528848055     -4.27497556613194     -0.06726564773013
  H   8.55477568051573     -2.05329060804467      1.22994511455128
