23
Coordinates from ORCA-job 4013optt
  Br  3.46305706064684     -0.94660447939497     -0.17534551790322
  C   4.89174025231707      0.25355162747809      0.06640271452209
  C   4.72267036475216      1.59053096458568     -0.01750483356292
  C   3.58747496833103      2.50427732218752     -0.14172311587490
  C   4.02670019669067      3.76144395846274      0.11902456152920
  C   5.45424040256448      3.68867613789506      0.40714678150567
  C   5.87217171218417      2.39544850310225      0.27592518034213
  C   7.13033329033477      1.84701111316206      0.58842435028629
  C   7.12941581171509      0.38541179937152      0.63560550882178
  N   6.10144675250873     -0.34195812205041      0.37141430091574
  C   8.26067765596720      2.60242646844210      0.69985310869491
  C   8.29662375244882      3.95501181205543      0.16833179090195
  C   9.55115006857915      4.32789481756998     -0.61706288117436
  C   10.76031452337076      4.04139367483321      0.15233893592988
  N   11.69460325872348      3.78861602979164      0.76482340827692
  N   7.38787361390147      4.84978086768267      0.06884207178792
  O   6.24045216313799      4.65277219273409      0.92163935642323
  H   2.57823667434376      2.20543367290155     -0.37713602862991
  H   3.44086457537065      4.66688221079376      0.13938230615073
  H   8.05718020846055     -0.13207585212199      0.86596572827442
  H   9.21333943905638      2.12665111177882      0.90214879135720
  H   9.51905898943599      5.38502782385615     -0.87240337444687
  H   9.59037426515873      3.74739634488305     -1.54109314412787
