23
Coordinates from ORCA-job 4014optt
  Br  8.48965517829138      2.47722041434438      0.15675587084812
  C   7.04654272994628      1.30354340967784      0.08283455009200
  C   5.75367571852209      1.62431633566889      0.18748556823612
  C   4.72071376074087      0.58076843358436      0.09750667052300
  C   3.50321009884411      1.16644111315123      0.20071411791789
  C   3.69759513303886      2.59286354261979      0.35085428429058
  C   5.03954796980307      2.89928806833018      0.38727715449566
  C   5.53044501771558      4.22320061427761      0.59963539913117
  C   4.83893704482286      5.16553943790207      1.30184498403497
  N   3.72182689641684      4.93142628438310      2.06469837883751
  C   2.80606578651763      4.12814502646033      1.71970864261554
  N   2.67319456429957      3.57279849844483      0.39654994500522
  C   5.02577540977621     -0.81222214184821     -0.07710458518757
  N   6.19303636465005     -1.31642976687753     -0.18690994684378
  S   7.55947684487771     -0.40308089346052     -0.16897405532408
  O   8.31473944252530     -0.77241411617733      0.98159351936058
  O   8.13270705203436     -0.46765014659239     -1.47205475148283
  H   2.54013820470689      0.67830342105604      0.15275471308783
  H   6.52375634068685      4.48403075190404      0.26520174836826
  H   5.28405581621855      6.14267942640297      1.44343043237654
  H   2.05963733836593      3.81100979617224      2.44044432086326
  H   2.90353348786412      4.31080234335567     -0.26982431861640
  H   4.18873379933487     -1.50857985277961     -0.11442264262960
