25
Coordinates from ORCA-job 4015optt
  Br  1.06578134235400      0.00987388871931     -0.31037518667076
  C   2.93041634237448      0.09809712475766     -0.20353317297032
  C   3.60469354844165      1.26326701109264     -0.10147991303791
  C   5.05770734564813      1.22239778328592     -0.03918345401871
  C   5.64756922219191      2.61880590046119      0.06537533430248
  C   4.37999685430687      3.41031538803801      0.07254196837585
  C   3.22967365906163      2.65749426458857     -0.02823581772532
  C   2.11946599620235      3.54607225561841     -0.01811324273318
  C   2.64818443744395      4.80375851767621      0.10663443811625
  N   2.03835231902061      6.05741301785384      0.19098808247846
  C   1.98673956301804      6.93998278856767     -0.87626131295725
  N   2.50555531659734      6.81574411879275     -2.02066502637191
  N   4.03344437331084      4.71087824526060      0.15928839107756
  N   5.74652639615526      0.14378962971619     -0.06598400829760
  N   5.04380986457036     -0.99117955109527     -0.15640061386914
  C   3.66655017596607     -1.16333099310930     -0.23373141041215
  O   3.19115213968870     -2.27522358481245     -0.31423850779532
  H   6.29339180970509      2.84149463230064     -0.78630789289085
  H   6.23811157505472      2.73253746115520      0.97632259381039
  H   1.07194439369254      3.30985209009371     -0.09427761527433
  H   1.43343240204611      6.23699446277742      0.97510468079127
  H   1.43221094750376      7.84553789191353     -0.63471974434967
  H   2.97614801820000      5.91672650124520     -2.13298335000315
  H   4.64264996120088      5.50751989922017      0.25090351774234
  H   5.59049199624466     -1.83981874411788     -0.17666873731703
