21
Coordinates from ORCA-job 4017optt
  Br  1.56993519860533     -0.78770046011286     -0.05926845095348
  C   3.42694190328146     -0.46568626031393     -0.06714927378255
  C   3.91926363935530      0.81022188286739     -0.06061507287395
  C   5.34396619610557      0.99305756790327     -0.06606628152537
  C   5.69747587809815      2.47261874201806     -0.05536791436421
  C   4.32504008491984      3.04431679295960     -0.04448485623190
  C   3.32017403960882      2.13394072863192     -0.04801643941649
  C   2.10200765451185      2.88719829058194     -0.03739434102554
  C   2.49647181146543      4.18353199492191     -0.02801597320065
  O   3.86046754450930      4.29658552062072     -0.03208031369613
  N   6.23097043167839      0.03608147958961     -0.07860059230183
  C   5.71412794619301     -1.20156950836453     -0.08512160118501
  C   4.34776921607367     -1.52502328223593     -0.07970669453967
  C   4.18729265029462     -2.94597697935527     -0.08770325428996
  N   5.28504439112328     -3.64059405955419     -0.09809995515702
  S   6.62155014436200     -2.66750899608008     -0.09975143281225
  H   6.28188841979776      2.73821655056486     -0.93865658363315
  H   6.28971960771277      2.72357451129941      0.82696278609388
  H   1.08643057397785      2.53193455385108     -0.03687711893207
  H   1.95479286305657      5.11270106928289     -0.01864513275674
  H   3.23166980526900     -3.45592013907586     -0.08534150341588
