21
Coordinates from ORCA-job 4026optt
  Br  0.94332507583964      0.34091139916690     -0.06088052585279
  C   2.78050014888265     -0.03971156273729     -0.06088945573291
  C   3.24450820386779     -1.30371604892912     -0.06126726065194
  C   2.83709574217860     -2.72430914197651     -0.06174605740856
  C   3.95671446286424     -3.49929100217147     -0.06210779606594
  C   5.14672966772265     -2.61832094378087     -0.06158327623833
  C   4.66200602825331     -1.37846148855378     -0.06113796936670
  C   5.65135149360982     -0.38692173844916     -0.06066560668768
  O   6.85231847285631     -1.02401511996722     -0.06077916686596
  C   6.60758938548977     -2.44575280036160     -0.06133891679097
  N   7.53684276671035     -3.27948837073656     -0.06159972881234
  C   5.22171916536740      0.88697943728020     -0.06026844858718
  S   6.09537153009162      2.39162693666582     -0.05978540357640
  C   4.55379608603451      3.32810838309726     -0.05978606620059
  O   4.50508730270259      4.52246703233325     -0.05954492839256
  C   3.41160818919767      2.39084426811752     -0.06016668448845
  C   3.75044107718394      1.09043038853842     -0.06042180151022
  H   1.81939335680347     -3.08072842279822     -0.06190547811533
  H   3.96916015887614     -4.57796946335963     -0.06255729523213
  H   8.45210324596611     -2.83218861697783     -0.06134291933531
  H   2.40733843950136      2.78750687559986     -0.06022521408771
