21
Coordinates from ORCA-job 4027optt
  Br  5.89220187251409      1.21071195462500      3.42548194100175
  C   6.01216839708264      0.67245311703135      1.64496011731573
  C   6.51325545120154      1.49085141857356      0.68940451772441
  C   6.61160437814930      0.99429439344275     -0.67282479060687
  C   7.16011068400432      1.96359825346899     -1.46932936848208
  C   7.41258202416148      3.10315927043929     -0.62443984248845
  C   7.03281565059751      2.83409390840954      0.65723090469756
  C   7.29657899749353      4.06296965561301      1.47107471631550
  O   7.10264243369978      4.26833253345383      2.63606681930311
  C   7.88147920649409      5.05194690191515      0.47847502270461
  C   7.94504201496170      4.48375569736854     -0.72699385110528
  C   6.15510109948342     -0.34514578399869     -0.99465733998556
  O   6.17154488860744     -0.86516120674689     -2.08227686296043
  C   5.60254525517501     -1.10126452520538      0.22121832642888
  N   5.55022849381627     -0.61426935641836      1.40855461726628
  C   5.12020585851200     -2.42108548045210     -0.01788751194457
  C   4.72371452923321     -3.52672825992164     -0.25390106117705
  H   7.35653886271431      1.87212492352926     -2.52733359018607
  H   8.18071829908068      6.04632577150556      0.77008632482659
  H   8.31746843500626      4.93292986015173     -1.63602590773970
  H   4.36945316801134     -4.50989304678454     -0.45788318090838
