24
Coordinates from ORCA-job 4036optt
  Br  1.16067728884600      0.21381423602532     -0.05883896559707
  C   3.03683334078846      0.22824191181710     -0.02423900034469
  C   3.77136364077046      1.34306975214725     -0.08998409379584
  C   5.24228429990364      1.25156027369824     -0.05107947438190
  C   5.73335755284162      2.51212839049999     -0.13921948042045
  C   4.62156400389107      3.44971575421264     -0.23041148819218
  C   3.45603908967016      2.76883534460165     -0.20107245383396
  N   2.22268284763913      3.40560117336629     -0.32173158087900
  C   2.27972518644477      4.78862931802354     -0.10597861428103
  C   3.42683760638828      5.47787385635976     -0.13717686276685
  N   4.68644137980331      4.84086586499231     -0.41596881176111
  C   3.46586110016940      6.88525206142821      0.05437310439094
  C   3.55241755964065      8.07064711210156      0.22123425179949
  C   5.89222596977072     -0.02038059531172      0.05936624212801
  C   5.16857596681057     -1.15021352006906      0.12284516447539
  C   3.69737450435873     -1.12673446358751      0.08276900472529
  O   3.02924971722290     -2.13204572152335      0.13185817381976
  H   6.77796579944549      2.79228279850648     -0.14619661570337
  H   1.41543066606043      2.91645348509109      0.03173680872349
  H   1.34117790543552      5.29614078400402      0.05153527670729
  H   5.45441088599764      5.29033355489056      0.06596216185029
  H   3.61673382743980      9.12279253387473      0.36363396174880
  H   6.97528914009307     -0.05114818675505      0.08860543229355
  H   5.61548072056810     -2.13071571839411      0.20697785929517
