22
Coordinates from ORCA-job 4037optt
  Br  1.00786283286823     -0.15149726718056      0.04213747557215
  C   2.88909181134928     -0.17180469485336     -0.02341607450145
  C   3.56075001018157     -1.36448322695996     -0.07719865848190
  C   3.20772736690634     -2.73832195215148     -0.10364728057381
  C   4.37879123338598     -3.45563272285989     -0.13263539411884
  C   5.49456053386969     -2.56666229786814     -0.12506808153509
  C   5.01046843346162     -1.28201832655369     -0.09571310071859
  N   5.59671437749145     -0.04013354667975     -0.08929063214257
  C   4.80069457075333      1.04782890641949     -0.05178760661945
  N   3.49304681869304      1.02088179822643     -0.01045235473347
  C   7.07164914067451      0.18995061861593     -0.17040323843327
  O   7.40083652055974      1.33325920834202     -0.28059510058706
  N   7.96471615117234     -0.82727416096956     -0.10658498297322
  C   7.86366994861665     -2.12315144352735     -0.08616150828758
  N   6.83307787449218     -2.94461779157216     -0.11672620310859
  C   9.19019189062156     -2.85463086680854     -0.02445385760979
  O   9.25046240200584     -4.05036690222804     -0.00628234445051
  H   2.20371470439783     -3.12764177154531     -0.09900314257232
  H   4.46437368581224     -4.53272802496646     -0.15565953966008
  H   5.31883678526737      1.99471238201724     -0.05847951335557
  H   7.07494096261151     -3.93069449377197     -0.10052224166563
  H   10.06782194480757     -2.19297342312485     -0.00105661944339
