22
Coordinates from ORCA-job 4039optt
  Br  0.96529669212261      0.04941997756564      0.01360126957818
  C   2.78972469003863     -0.37826047291922     -0.07704902407286
  C   3.25613551905230     -1.57637148709407      0.38788476021473
  C   2.67669405000270     -2.72835378604390      0.99316754423149
  C   3.68956360616132     -3.61685006061968      1.23533973394442
  C   4.95190920662297     -3.08873173168612      0.78773873888528
  C   4.68556197397590     -1.84056332608366      0.27284822069972
  N   5.50769023156451     -0.95690125939202     -0.36142140803210
  C   6.72097815963031     -1.45412986073909     -0.90551866178917
  N   7.50291848268218     -2.32459357591461     -0.43732128519360
  O   7.32960297095444     -2.73667132767199      0.88149599323048
  C   6.25134800112656     -3.59634990859162      1.16823894386500
  O   6.47551459523390     -4.57300331493482      1.80806622480458
  C   5.00831266807660      0.25757083703392     -0.77470760208171
  C   5.95466442546995      1.28098089957309     -1.29896284480910
  O   5.58104696103359      2.31621473173625     -1.77264057885649
  C   3.68513189320779      0.56215277315198     -0.62567722084934
  H   1.63232867187576     -2.84649975481177      1.22986805362687
  H   3.59645885166892     -4.57694677455526      1.72103612166886
  H   6.95823561159341     -1.09924028811252     -1.90073260106024
  H   7.02954575873295      1.05459065180330     -1.19321012018132
  H   3.35333697917261      1.53953705830616     -0.94504425782371
