23
Coordinates from ORCA-job 4042optt
  Br  0.70505532548234      1.34494649758208     -0.16726839689111
  C   2.54907182038556      1.06017153450840     -0.01136973937277
  C   3.48136640800062      2.02253916217664     -0.01890426497960
  C   4.89757810242844      1.67308788100524      0.09758537396055
  C   5.61021088657809      2.82507620293371      0.06464458265578
  C   4.71363266472216      3.96791453754683     -0.05970814141053
  C   3.43493602872528      3.50293789672594     -0.11787586069830
  N   2.29922237496483      4.23961027919722     -0.29352852675592
  C   2.08235650219750      5.53655846177591      0.17355820827313
  O   0.95948708453220      5.95383458024946      0.28515523010559
  N   3.17351376167969      6.30045787029887      0.56391436039431
  N   4.42804246113387      6.39603056379164     -0.02539983028505
  C   5.11036824425528      5.34648497930439     -0.24672690303191
  C   5.30502484158532      0.30546806371733      0.22516551084309
  C   4.38850482074215     -0.67622669583554      0.24033474773024
  C   2.95243452840471     -0.39346956353855      0.12698753941764
  O   2.10925951209057     -1.25784383288847      0.13728369621365
  H   6.68759380856997      2.90468934648287      0.12242873143918
  H   1.42840859293272      3.74435881036192     -0.42996916668522
  H   2.84209937951907      7.22651834959122      0.79338089904970
  H   6.10616172797405      5.53603295733916     -0.63750260080373
  H   6.36192884813632      0.08181208366137      0.31089827563014
  H   4.64974227495920     -1.72098996598767      0.33391627520112
