21
Coordinates from ORCA-job 4044optt
  Br  2.24601581982534     -0.20818782401703     -1.97674037002984
  C   3.73450120657288      0.08384071212864     -0.87217807274243
  C   4.01979600281011      1.30221590057479     -0.28981620734734
  C   5.18811158952383      1.44222751776454      0.52211191889153
  C   5.31089940282378      2.84556619454886      1.04784212414920
  C   4.09932671873688      3.58004929155409      0.48404731334525
  C   3.36282182532191      2.58199529990132     -0.31044193197315
  N   2.24265060020010      2.92865552412834     -0.90319101681278
  N   1.31125788002437      3.32766710282752     -1.35781293497103
  O   3.79867152166676      4.73180533663280      0.64800347961545
  N   6.03254689462671      0.47749415662076      0.77145043515571
  C   5.73970497539266     -0.70068045125604      0.21041602253090
  C   4.63516659895458     -0.94089762775907     -0.59399712180638
  O   4.53020318823621     -2.19851701772405     -1.05302110243620
  C   5.65799353655724     -2.93873599863358     -0.55944473304386
  C   6.47875613020090     -1.97425604179086      0.30000111441224
  O   7.48647440924661     -2.24843144497834      0.88815125534577
  H   6.22900964752590      3.33418010771713      0.71799786861412
  H   5.29088138991060      2.88275637289550      2.13834897148316
  H   6.24378090837541     -3.29771363717788     -1.40548571250142
  H   5.30142975346718     -3.78403347395746      0.02775870012112
