21
Coordinates from ORCA-job 4046optt
  Br  1.07945055929955     -0.29143589854238     -0.08789671035403
  C   2.90461930095897      0.02564616884571      0.06287226374064
  C   3.46927800608228      1.09698983289119      0.63800479744296
  C   4.92952515643602      1.31241896862388      0.66305442244029
  C   5.29143517717746      2.53198642837430      1.49955343924568
  C   3.92759194116641      3.07596083693529      1.80396582632830
  C   2.95425767962375      2.26602629431067      1.30500657080881
  O   1.72336957598806      2.72567571835956      1.55979411007543
  C   1.92116780614241      3.88041489576674      2.25514535898314
  C   3.24932592159917      4.14574752433775      2.43972008818015
  C   0.77088480183507      4.61255622869186      2.64859783928369
  N   -0.13800886873389      5.23117920398905      2.97709994906519
  N   5.77503380697877      0.68544476440972     -0.05593772943428
  N   5.27944474318216     -0.30239700397409     -0.84210504020846
  S   3.99779444402350     -1.27002431560232     -0.41030780411429
  O   4.30186156753072     -2.02672271336824      0.76013817197379
  O   3.58812399443652     -1.93071030970729     -1.60395237686169
  H   5.91809027562315      3.21484166793733      0.92614268541197
  H   5.83861402037201      2.24560195690709      2.39945855904056
  H   3.64568566139674      5.00293500375507      2.95705370472203
  H   5.96945442888111     -0.77013525294093     -1.41640812576989
