21
Coordinates from ORCA-job 4047optt
  Br  0.80221305419673     -0.07872143503285     -0.01859349552928
  C   2.68100879216126     -0.01569868411843     -0.04958114118708
  C   3.35080164367190      1.15186795886011     -0.05892827848685
  C   4.80900399060500      1.22841488217101     -0.07450943450050
  C   5.26017401455866      2.68691742895193     -0.07337220803051
  C   3.95258076294893      3.41776578194902     -0.06508445891174
  C   2.91840606207739      2.53079562253158     -0.05614130794207
  O   1.73034190724320      3.13542815667627     -0.05116797871034
  C   2.01086400170043      4.47773945320273     -0.05713250881715
  C   0.87448085394084      5.39166075239136     -0.05637556289458
  O   0.99751192319305      6.58964741180979     -0.06016004660960
  C   3.36183678163654      4.70124491029422     -0.06513990861590
  C   5.63949192157313      0.17389434763968     -0.08865083250566
  C   5.21431419765133     -1.21413494589649     -0.09148893223450
  O   5.94679507327817     -2.16682174153251     -0.10989802297207
  S   3.44030110734561     -1.56115362442481     -0.06306681928981
  H   5.86662943418117      2.90104271438866     -0.95533182470752
  H   5.87358303533246      2.89595945238822      0.80516802250582
  H   -0.11491798376653      4.90222199210840     -0.05248545752823
  H   3.81866248908975      5.67685344717649     -0.07116391623409
  H   6.71491693738097      0.30807611846561     -0.10089588679834
