20
Coordinates from ORCA-job 4049optt
  Br  5.79691786702893      3.87809128251879      3.03287557868682
  C   5.33525186238963      3.72594364600900      1.23681953139364
  C   6.06493884510149      3.10830631410217      0.30100131187727
  C   5.57043916248733      3.06972163800406     -1.06859499820347
  C   6.44316877462056      2.37489599838809     -1.83921968502419
  C   7.56421334545886      1.96963907330316     -1.00434343507875
  C   7.34028642861793      2.39056719770067      0.28274040665328
  O   7.99459507271351      2.09323595304138      1.43168989005614
  C   9.10688722627784      1.29703073204531      1.74816927938057
  O   9.19467276147361      0.89364627768259      2.85231976597732
  O   10.05406105876154      1.05852960643386      0.81570200945033
  N   9.66291135964738      1.77438028841236     -0.35907547997197
  C   8.73115170697885      1.10389119898858     -0.93822960977070
  C   4.30153834399221      3.70887350665773     -1.42742412089376
  O   3.84383117918763      3.71523395608122     -2.53663415034091
  N   3.58034149852986      4.35219761706429     -0.36280162392699
  C   4.05256080450668      4.34954154102512      0.81517268708709
  H   6.33546527661884      2.18162717775683     -2.89607169877022
  H   8.63737585593770      0.02291968500478     -0.82738563528303
  H   3.48639156966955      4.84772730977999      1.60028997670151
