32
Coordinates from ORCA-job 4052optt
  Br  1.55531223429384      0.95472045970574     -1.72570832781731
  C   3.08954285756842      0.52564082590820     -0.70937830730192
  C   3.64549518236821     -0.73394874416223     -0.82101205698088
  C   3.47638571999327     -1.91680632446062     -1.75184612499721
  C   4.90148366079750     -2.56120609539689     -1.72887309717902
  C   5.41285289547854     -2.28059525526684     -0.29617274860606
  C   6.88603986983195     -1.97715128867186      0.09022652518089
  C   7.48977866031142     -3.02117978767779      1.03189849748647
  C   6.92581653984810     -2.63179442237020      2.40038241431613
  C   7.07900736590695     -1.10698071379349      2.42378411638725
  C   6.83882561737762     -0.64879645777165      0.96363846111371
  C   5.47817248169493     -0.05555415181639      0.65810535871303
  C   4.92388548008260      1.21262786846277      0.76242103281548
  C   3.70758688800759      1.49451112445676      0.11164033234352
  C   3.15917749082017      2.80869559221530      0.23846548446084
  C   2.71941376340123      3.91702196707877      0.36684023283123
  C   4.75410131948409     -0.97986096366183     -0.04709978074471
  H   3.15680397885893     -1.62175369224829     -2.75076225981180
  H   2.72971690529377     -2.61509671697569     -1.36243912833139
  H   5.53586944740635     -2.03509938528927     -2.44676105500470
  H   4.88362021084733     -3.61712288593991     -1.99665965909037
  H   5.00699685426429     -3.04960009104241      0.37311045121526
  H   7.48350499714096     -1.82908784947949     -0.81078589793640
  H   8.57897831993501     -2.93019367467940      1.04853713419905
  H   7.24526332357535     -4.04227906592996      0.73543548356921
  H   7.43306935688630     -3.12251771143176      3.23043386535940
  H   5.86800132202704     -2.90152342068071      2.45755537806247
  H   8.09622788694297     -0.85043211965486      2.72540323357090
  H   6.39719480004337     -0.62094963587269      3.12134730227902
  H   7.61992667334304      0.04936335261637      0.66060537493200
  H   5.41617125953754      2.02002358643998      1.28970748723474
  H   2.31977663663126      4.89692567739034      0.47296027773116
