23
Coordinates from ORCA-job 4055optt
  Br  1.02637248206956      1.25065584581396      0.42505402866558
  C   2.80175861936552      0.76596041485227      0.04453735663308
  C   3.77127474333302      1.67658457561304     -0.14641939963203
  C   5.15848341715155      1.27193305059724     -0.25555421305848
  C   6.04475565400302      2.50035633774092     -0.30322418260243
  C   5.10285960164781      3.68182118956916     -0.21369473882604
  C   4.28901402848331      3.86939382246700      1.03989515942093
  C   3.71930480520101      5.24067492180063      1.33712160420759
  N   2.74230789082095      5.73379067315761      0.38278111578115
  C   2.30387176137299      5.00192487000545     -0.53467305957990
  O   2.65186648001274      3.72998181558973     -0.85847649125364
  C   3.69362544988712      3.15730876157946     -0.13381186860302
  N   5.66725106739596      0.09284743134575     -0.28598461524808
  C   4.89628299275877     -1.04787787197805     -0.26577104998563
  O   5.30990432144359     -2.16012019194641     -0.39430404464851
  S   3.09046260722532     -0.92657176034595      0.00895108194643
  H   6.60730877308329      2.49153244567593     -1.23819491896405
  H   6.77106457819629      2.45276356553049      0.51039211312241
  H   5.28766870735295      4.56588735093563     -0.80992712618636
  H   4.54682828064211      3.26281883825062      1.90102636018233
  H   3.22429577731859      5.21320105685539      2.30975435029878
  H   4.51534872725142      5.98465436294058      1.41561675970501
  H   1.54508923398305      5.35847849394951     -1.22309422137512
