24
Coordinates from ORCA-job 4057optt
  Br  1.16736665323038     -0.07610788730115      1.16196424377119
  C   2.87963714556132      0.04689219001876      0.37890676853075
  C   3.42549959446830     -1.03281488033299     -0.21990846431964
  C   2.87309625115523     -2.37640695200004     -0.37685734073030
  C   3.74981025474644     -3.16202026007776     -1.01847697940997
  C   4.97989798751031     -2.42061297947082     -1.34800408663961
  C   6.38934456596951     -2.98586344026629     -1.24132073060917
  N   6.53022389884231     -4.39926343019209     -1.32903022874330
  C   6.01658061174888     -4.79841227382877     -2.53478045420965
  N   5.64562634863684     -3.86208357291771     -3.32183744624194
  C   5.82361437261100     -2.63535351994612     -2.59759622766517
  C   4.74349352016156     -1.04633470647033     -0.84499610306274
  C   5.54999277092855      0.01651187471742     -0.90531426594536
  S   5.13457421509402      1.55660545097643     -0.24310333802518
  C   3.51978882911227      1.35860682642929      0.48722889137599
  N   2.96112005320024      2.33584418282952      1.07262049746973
  H   1.89517953985428     -2.66388699139041     -0.02430508950497
  H   3.59000553491578     -4.19804624820432     -1.28042925444571
  H   7.13216215536023     -2.42179116205513     -0.69279166024143
  H   6.67068371688351     -5.00467806306131     -0.53963073785577
  H   5.96647975764200     -5.85106436727257     -2.78276403236525
  H   6.08494685654735     -1.75097033935851     -3.16307533057509
  H   6.52477961934863     -0.00475440268504     -1.37875056280016
  H   3.52809574647101      3.18100495185995      1.06625193224276
