30
Coordinates from ORCA-job 4063optt
  Br  2.87543816036474     -0.21146952355585      2.39880804489650
  C   2.99369752680454      0.04552343789741      0.52376820371518
  C   2.95683964240622      1.29857586875077      0.01035793113017
  C   2.85359188080232      2.51879714267814      0.89130402215813
  C   1.40199456121962      2.88203404931579      1.25161431517421
  C   0.58382289923204      3.21687353080082      0.02882399214798
  C   -0.36597606331472      4.37530775143488     -0.01724784220533
  C   0.94994786437213      4.44833097581300     -0.73682567782105
  C   1.09796284244199      4.40718555045330     -2.24482662780224
  C   1.77705875385096      3.12398130026444     -2.71348753325478
  O   2.87105494006113      2.82502832799269     -1.84371385352350
  C   2.99256775005317      1.52622747689686     -1.43419543285638
  C   3.13198893141356      0.54990502789350     -2.34033807916123
  S   3.26050886515143     -1.12439589079671     -1.97675695835723
  C   3.11461561374993     -1.21934820613688     -0.21619092936398
  N   3.13158079017995     -2.34580516292262      0.36783185695486
  H   3.30222993962109      3.36061048830226      0.36683504678697
  H   3.41977240409164      2.34368045619822      1.80351715863169
  H   1.42802240840295      3.75135052182652      1.91449690518454
  H   0.94599334563369      2.06402956778211      1.81285426444350
  H   0.29223217485109      2.36017635177786     -0.57143267793467
  H   -0.48856005995295      4.97163179773851      0.87729462083794
  H   -1.26177595059223      4.26813080820070     -0.61483561118084
  H   1.70154662786915      5.04994586358619     -0.23859429576871
  H   1.67926099014777      5.27019996214126     -2.57220865902322
  H   0.12876745398051      4.47413352734128     -2.74608265791110
  H   2.14477368554741      3.22519185024934     -3.73773105508440
  H   1.07579547054915      2.28689995565448     -2.68820131758470
  H   3.16907965890898      0.77838324159113     -3.39750378369545
  H   3.22416689215269     -3.12511604916945     -0.28033336953284
