26
Coordinates from ORCA-job 4064optt
  Br  1.85555961669285     -0.50933810420636      2.23559197886366
  C   2.81200071458108     -0.11482986784749      0.66208941436919
  C   2.91928867430310      1.15655151023425      0.21275336683048
  C   2.19327332949222      2.30123459933105      0.79685831877460
  C   0.92102794981348      2.50156166717371      0.47624044673180
  C   0.29528830960340      3.83316482228873      0.36707256974872
  C   1.08378687565698      5.09717685028389      0.51026837201085
  C   0.78698255235237      4.59264918218274     -0.86553094906882
  C   1.87900466317956      3.98030350150926     -1.73033659804742
  O   3.11892914300309      3.95652584054351     -1.04457504404618
  C   4.00598492421468      2.93690548011739     -1.41097973839347
  C   3.68689351087381      1.48780579448519     -0.99569101777298
  N   4.22632826034156      0.62331833526283     -1.77447320743963
  S   4.22358106758446     -0.99453204101466     -1.51989722249617
  C   3.38547078083703     -1.30053718642797      0.00683577212196
  O   3.30505210844074     -2.43072808140442      0.41140098759324
  H   2.78974576044324      3.09706879275471      1.22284982252748
  H   0.36737154760167      1.68503742219031      0.01678115243237
  H   -0.76811151379859      3.89375313922068      0.55696825712694
  H   2.10919018361784      5.04267355031009      0.84192526574393
  H   0.54294545218410      5.96883464550037      0.84929042762030
  H   0.03083555137971      5.12236545516866     -1.42962412368859
  H   1.99030451093606      4.56525439631129     -2.64842245172865
  H   1.59839736783797      2.95994967094863     -2.01903350832093
  H   4.95531360517399      3.19473222699271     -0.93501145539106
  H   4.17455505365353      2.91109839809087     -2.49135083610162
