24
Coordinates from ORCA-job 4065optt
  Br  7.75142917857100      3.52286297166181     -1.09714599926908
  C   6.60071451895098      2.07704764171894     -1.52477124590876
  C   5.48540703801405      1.78172201236405     -0.79154430132716
  C   5.07175303798695      2.83813829327477      0.19030993706950
  C   4.56831652498828      2.64928363036897      1.41024329237766
  C   4.37334604618057      1.22410037958400      1.75571839120301
  C   3.25685844012727      0.37409819421782      2.28507299379795
  C   3.42109452273155      0.58031560117220      0.81109492717400
  N   4.06396213208102     -0.22994812945688     -0.15938560610437
  C   4.87076272813420      0.44391764340521     -1.07823071035467
  C   5.14164891209201     -0.23553213469794     -2.22335052626669
  S   6.00165425282814      0.45823935428476     -3.51740820111932
  O   5.17842894603050      1.33445018807035     -4.28719637634552
  O   6.82029884326832     -0.49452517891553     -4.19922518577745
  N   7.04863423660698      1.37980474286897     -2.59774149910711
  H   5.26547093981665      3.84819204127172     -0.14488695681415
  H   4.33294315616500      3.48280066080837      2.05977998654404
  H   5.31274597917179      0.68218469610496      1.79140594430957
  H   2.36568385787005      0.81582530652248      2.70878316148215
  H   3.57200184986656     -0.55321449301916      2.74228102183123
  H   2.68789477441144      1.27336704789238      0.40934917526590
  H   3.51575940707010     -0.96539670500513     -0.58166233196558
  H   4.78389696545478     -1.23937103854548     -2.40470923297002
  H   8.00429371158166      1.45663727404833     -2.91678065772511
