22
Coordinates from ORCA-job 4068optt
  Br  1.13271971806172      0.02552273739835      0.08015059959029
  C   3.02373673881099      0.03615643164669      0.11368459855248
  C   3.73872241542332     -1.04903409822096      0.54721570472749
  C   2.97495290549104     -2.21784248898844      1.03600280199771
  C   3.20537291172623     -3.51919727965483      0.81038965873609
  C   4.40427670902108     -4.05250582520530      0.20729604271073
  C   5.64066810201301     -3.47368759064791      0.31480167845023
  C   5.96255882455035     -2.23254185834862      1.06381052643904
  C   5.19681776152820     -1.04354933694164      0.52136969226368
  C   5.91139713058617     -0.00124931362301      0.05854821377131
  S   5.30454981074632      1.47700937245697     -0.53959307179086
  C   3.54376189891278      1.30796113102346     -0.39877614813168
  O   2.87303083341061      2.24544426679815     -0.74369621197856
  N   6.44720381588557     -4.32537960266336     -0.34069394491775
  N   5.76125329312013     -5.37597977126530     -0.81716414161984
  N   4.53074470213980     -5.22126897793640     -0.48235507286804
  H   2.04377940417232     -1.96694592785968      1.52337711495575
  H   2.45144324617948     -4.23530639150817      1.11569766945069
  H   7.03089069184804     -2.02108874360731      1.04382890727176
  H   5.67752347778940     -2.39330050214425      2.10939403590416
  H   6.99399305756421     -0.04104999844575      0.05672348904009
  H   7.44160255101920     -4.27816623226264     -0.49401214255479
