24
Coordinates from ORCA-job 4069optt
  Br  1.00149835535376     -0.07638597511663     -0.30246607328154
  C   2.87144044965060     -0.18839770523662     -0.18180639605892
  C   3.51461164559522     -1.28081555721514      0.28024183818148
  C   2.82460201984606     -2.51837224223006      0.77848423713888
  C   2.85292707368334     -3.65379472665322     -0.25089409477492
  C   4.22963361111676     -4.20542980461065     -0.48110074472347
  C   5.44620810803097     -3.72081440382784     -0.07532154188112
  C   5.75035448051045     -2.47368683010714      0.71103259029654
  C   4.96887343172692     -1.26755594583160      0.26499404755175
  N   5.64619206208237     -0.24907807698429     -0.13345355770793
  N   4.97347383988009      0.82974201070727     -0.54000221610660
  C   3.60025121724893      1.00239092866288     -0.62970171391236
  N   3.01323519663359      2.05506595354538     -1.03926782581139
  N   6.50092261298498     -4.50776765506440     -0.45402610229442
  N   6.17995803379620     -5.54658712166172     -1.11063434366070
  S   4.52855226324545     -5.64304641156604     -1.32647180616494
  H   1.79025612590429     -2.28806810847097      1.01939624606035
  H   3.30801556505987     -2.85611212413762      1.69779704876306
  H   2.43364161740509     -3.29376371963136     -1.19435947912928
  H   2.19995691270847     -4.45749177874782      0.09464322513264
  H   6.80895582591300     -2.25420807130183      0.58991926479486
  H   5.57721174874288     -2.65770234558947      1.77566309490694
  H   5.56516776624221      1.58952043321640     -0.83877898355956
  H   3.66906003663839      2.78635927785250     -1.30488671375936
