27
Coordinates from ORCA-job 4070optt
  Br  0.84914072463217      0.01405728427474      0.18465505614742
  C   2.72635311270256      0.10100732343522      0.02330838818396
  C   3.40036441268400      1.29549036306063      0.04217781580674
  C   2.91494624592652      2.71036120280824      0.18392244486974
  C   4.13549090570702      3.53194220850238     -0.28095755023646
  C   5.35805883432377      2.66291149744775      0.04739247784511
  C   6.04578941121501      3.01677405153530      1.39951264615559
  C   7.08861831136346      3.83006068659801      0.60659517659139
  C   6.67814705394826      3.03645192865645     -0.65188391429862
  C   4.80795573401487      1.27014152522583     -0.06013978370309
  N   5.54966307123201      0.19176049306452     -0.17767040328806
  C   4.88558201911385     -0.96626040228966     -0.21245015620938
  C   3.48212691340744     -1.06077662602422     -0.11545476239277
  S   2.99439391559028     -2.70609993379857     -0.19898582535876
  C   4.67279054316619     -3.13594969804822     -0.35638402915258
  N   5.52882322143842     -2.18103339404334     -0.34850073133588
  H   2.67207659108073      2.91418358951234      1.23122119945416
  H   2.01643872883469      2.90910229478106     -0.39971406555615
  H   4.18369032810007      4.51821532530923      0.18111475785020
  H   4.08053942049294      3.67031625785871     -1.36361563900081
  H   6.48902358852534      2.12599553529091      1.84450271827511
  H   5.43722035800426      3.53420197582211      2.14196404112579
  H   8.12517698992279      3.76270452667765      0.92985277879200
  H   6.80820937421005      4.88037420698046      0.53145232113246
  H   7.29245809515324      2.14589619259151     -0.78491184989987
  H   6.59742441764675      3.57384646508528     -1.59674846971529
  H   4.94349767756321     -4.17867488031433     -0.45325464208194
