27
Coordinates from ORCA-job 4071optt
  Br  1.29424177794639      0.91588090714793      1.41358176629434
  C   2.85857834789512      0.76883932605620      0.35593493832925
  C   4.03598951636020      1.26172558140524      0.74182515331115
  C   4.26422696196914      2.49351969066275      1.57539294805121
  C   4.48237326730231      3.70661606347299      0.61796473466004
  C   3.32135121755765      4.68367199417030      0.39364031317098
  C   1.96828155400061      4.18845706184682     -0.18309372427006
  C   2.38910699571177      4.68137239162730     -1.60800839112950
  C   3.51135542201703      5.50893366916937     -0.91145716564216
  C   2.84220787268773      3.51974890126714     -2.34907431155307
  C   3.23522146404753      2.42258936445492     -2.68132177027950
  C   3.80979752295748      1.29447052932807     -2.02422117210966
  S   2.57752387755337      0.17141074117956     -1.26775168766841
  N   5.03373715171556      1.33058162982079     -1.69601436899025
  S   5.43540443472830      0.66000634591179     -0.21641820016288
  O   5.42207224279219     -0.76587301779297     -0.26807826798317
  O   6.59926230244849      1.35397077194325      0.22661154973721
  H   5.14172553831212      2.36486258962128      2.20544209595646
  H   3.39992077142751      2.65734962283464      2.21973024667364
  H   4.83603288065894      3.34384991154221     -0.34971816970405
  H   5.31243688361923      4.29884165935447      1.00909154571037
  H   3.19220110279186      5.28939553694523      1.29072676384716
  H   1.13856641951424      4.78374919111165      0.19528128606937
  H   1.70966072425614      3.13757958758471     -0.10825285140227
  H   1.64177746222919      5.24823520416314     -2.16042692290765
  H   3.20031763330296      6.54605716686741     -0.80111952536772
  H   4.49862865419688      5.47215757830374     -1.36926681264083
