27
Coordinates from ORCA-job 4075optt
  Br  1.30602186150520     -0.71459421917092     -1.18701814677490
  C   3.17991238708550     -0.47542767298923     -1.06573481569422
  C   3.71403957478311      0.39653997964735     -0.15541365924767
  C   2.80197490286826      1.01682380145283      0.82361365751203
  C   2.83666014650481      2.27485574191373      1.24899596763441
  C   3.84538886845846      3.29088442635671      0.80398618655322
  C   3.72117170212036      4.66876028926471      1.47217350764474
  C   5.16255141830181      5.17626051915910      1.55626840261490
  C   5.94367760431009      3.91371700228007      1.93863882332199
  C   5.24627612046701      2.82700856307932      1.15944044718385
  C   5.77116291632958      1.66454756941928      0.78606721974947
  C   5.15120648105020      0.64094569646478     -0.07428302180265
  C   6.02046636727527     -0.10250651114007     -0.80149006329426
  S   5.65581787360515     -1.29419523326830     -1.95996225184379
  C   3.88406080827982     -1.30199777831180     -2.04223355953686
  O   3.37200358487786     -2.01142437677263     -2.87013413856814
  H   2.01761599861747      0.36736195977721      1.19035316530085
  H   2.09914778794656      2.59159521708104      1.97976764315325
  H   3.78626512341337      3.40016271298512     -0.28555363005095
  H   3.32258074769634      4.54258404573207      2.48303793297841
  H   3.05309448972193      5.33924758854519      0.93344098042940
  H   5.28841381725348      5.98991658269810      2.26906120950407
  H   5.49078643023157      5.53232286035587      0.57689243768562
  H   5.82865055869626      3.72855011632682      3.01172945016433
  H   7.01086666325224      3.96424621374785      1.72471294344950
  H   6.80403571777976      1.46143590533567      1.05252387400100
  H   7.08615004756846      0.05537900003007     -0.68588056206761
