35
Coordinates from ORCA-job 4083optt
  Br  1.12400599328693      0.46146320276607      0.05265430883519
  C   2.91895082274033     -0.12057510449367      0.18995450012066
  C   3.42261496113624     -1.13495996783725     -0.56839145866933
  C   2.60068566422236     -1.73320894659789     -1.70069341443132
  C   2.18438784732223     -3.20564595182666     -1.52870533606695
  C   3.40159108603818     -3.96676743528406     -1.02990255715745
  C   3.42239021226877     -5.48401002779108     -0.98458841964058
  C   4.53159447262451     -5.94441616959330     -0.02301380628765
  C   5.91749793753626     -5.27361617881921     -0.14039718265119
  C   5.99073203754212     -3.77906160977794      0.22532145109761
  C   5.47987077048059     -2.80957989810072     -0.89372851906572
  N   4.56344005608228     -3.48388510227005     -1.78349599506955
  C   4.80229608278679     -1.56695041626252     -0.30438997954295
  C   5.51507797509172     -0.85801572067098      0.59248169099631
  N   5.00592117954858      0.21214954060986      1.26308026054892
  C   3.69089611942968      0.64677700385324      1.17111980555887
  N   3.20023734449861      1.61894679279415      1.83865941839451
  H   3.22037240786473     -1.67113023840365     -2.59375803953654
  H   1.72178252083877     -1.11965552517863     -1.86355597903982
  H   1.84291026895898     -3.58527736658966     -2.49537590298035
  H   1.35838357455291     -3.29725176468645     -0.81913797701758
  H   3.51679089525960     -3.65092526799250      0.01295267336085
  H   3.58273011321614     -5.87806382505063     -1.99436716589221
  H   2.46364382830899     -5.88036530035208     -0.64140812903235
  H   4.66793045799403     -7.02355913992327     -0.12159200476301
  H   4.17749766594666     -5.77343902236099      0.99890205626008
  H   6.34174837360131     -5.44150907237205     -1.13587354623626
  H   6.57799758405098     -5.80718479884714      0.54697981097280
  H   7.02645336425426     -3.52687456632274      0.46580316363828
  H   5.42091613338984     -3.61607293592331      1.14358339042455
  H   6.34000098230311     -2.48977407933765     -1.48862946906933
  H   5.03018686351545     -4.24572883965262     -2.25335061244827
  H   6.53804494825428     -1.11057389601369      0.84036756544012
  H   5.60021551984502      0.70781781718738      1.90795630593813
  H   3.88920393520867      2.04192381112171      2.45653909301152
