31
Coordinates from ORCA-job 4086optt
  Br  0.92900619198537      0.10125442110573      0.97160274399431
  C   2.74298853386134      0.00095168154651      0.42212600047958
  C   3.28199452469838     -1.38118414848419      0.12767034633640
  C   2.31553446288995     -2.15382089294577     -0.83573990446209
  C   1.86873966061683     -3.41330228943022     -0.07369427307189
  C   3.00450107268573     -3.64314050600068      0.91251289494479
  C   3.25130064337194     -2.23011600887116      1.42467822354726
  C   5.31900061414205     -2.13327229569328     -1.51176949327571
  C   5.75393951739320     -2.41821076567227     -0.11665752092920
  C   5.37741408679347     -3.75054748809869      0.50202053480245
  O   4.08339323216544     -4.16909421192306      0.14786119321989
  C   4.76355636591975     -1.29273617608353     -0.38024819216816
  N   5.46734297495227     -0.04681976179264     -0.33980259289938
  C   4.88683632141270      1.02140184061944     -0.00897004152807
  C   3.46335359655662      1.12677744809367      0.37511928345464
  C   2.97245459759060      2.42708662221530      0.68356120683135
  C   2.62766956786230      3.54871779946874      0.93049853695307
  H   2.83479337125964     -2.41719896730780     -1.75015261627951
  H   1.46767335210709     -1.53723444914418     -1.12447698422374
  H   1.72517159416952     -4.27330366278564     -0.72616913543135
  H   0.94129406318771     -3.22861275842703      0.47196160603576
  H   2.75890306826677     -4.34110723398541      1.71851407582673
  H   4.15256207942637     -2.08878339860823      2.01725249983234
  H   2.39781069628388     -1.96045883832239      2.04714167611851
  H   5.99688704512601     -1.62760909128240     -2.18268578981678
  H   4.67632442084666     -2.87874590910222     -1.95463331628907
  H   6.73608183889463     -2.06393721743952      0.17090438903767
  H   5.50188254062622     -3.73004566361660      1.58960994788312
  H   6.05790733043968     -4.51071799497478      0.11309239778720
  H   5.46273560269775      1.94361622946016     -0.00338727566679
  H   2.30494703177006      4.53719368748218      1.15525957895668
