31
Coordinates from ORCA-job 4089optt
  Br  1.28746118188034     -0.12272134682151     -0.69915469327340
  C   3.11679219914163      0.08439542534623     -0.31004012143408
  C   3.71492045510227      1.28714786469621     -0.22569537452464
  C   3.18209442973396      2.68382538822613     -0.37302762336916
  C   4.28179171825243      3.52537476035132      0.30063950385127
  C   5.59823589042963      2.73660299158000      0.09910078392907
  C   6.64199607651757      3.00916263376466      1.18278143672831
  C   7.12158982505665      4.45781873911597      1.15657465207618
  C   7.69187644859079      4.83246602450609     -0.21879534860775
  C   6.70111063691933      4.49331456042942     -1.30914818704111
  O   6.29941556626807      5.30206721659579     -2.10654486130871
  C   6.20236114793502      3.06400934339440     -1.28906592034901
  C   5.11282386975339      1.30228523552648      0.07896547464222
  C   5.82975209742623      0.17494988125903      0.28437410072578
  C   5.19247991027048     -1.12363424290417      0.19466713574721
  O   5.72243727519279     -2.20441854302611      0.35562065374508
  N   3.82219211328071     -1.06108403761406     -0.10982886903307
  H   2.20647734962610      2.81461785736920      0.09400208766104
  H   3.07379729544089      2.94856925028422     -1.42840109662821
  H   4.07834983985473      3.59761105995315      1.37210912864007
  H   4.33422107355435      4.53769986706219     -0.10070913068292
  H   7.49843436637178      2.34504003238621      1.02765512754724
  H   6.21977036760345      2.76192358194451      2.15939704668524
  H   7.88183032323696      4.61533577106017      1.92242681407968
  H   6.29111209676086      5.12717964949631      1.39662638933631
  H   8.59912609820352      4.24581703192379     -0.39876860736734
  H   7.94368795801276      5.88925188069771     -0.28512893332825
  H   7.04432939086649      2.38892325077227     -1.47057649556758
  H   5.47107091522043      2.92979306998144     -2.08651645596878
  H   6.88426966601806      0.17559443931347      0.52425967823189
  H   3.35819241747824     -1.95691863667057     -0.17179829514259
