29
Coordinates from ORCA-job 4092optt
  Br  1.13789808091806      0.21221445613800      0.01666281762623
  C   3.04747088002872      0.05743889734893      0.04174735107453
  C   3.64137332765011     -1.14119211594305     -0.35666515063016
  C   2.85416409835118     -2.30631561156756     -0.92405129286883
  C   2.32337619553257     -3.35046978996538      0.08364443539650
  C   3.38985484745482     -4.29273085145086      0.65106497669905
  C   4.00700762534037     -5.28101168702377     -0.39668071369294
  C   5.44941987568118     -4.78137110028488     -0.65689844228207
  C   5.36191609459618     -3.40657771482416     -0.06680379074280
  N   4.56772555607956     -3.52682345103451      1.07252617842649
  N   5.73082799409374     -2.32861176287836     -0.62618219231257
  C   5.05177254645972     -1.16875834244532     -0.24318697860818
  C   5.73296872396834     -0.03486524188483      0.18536435007072
  C   5.00126410425211      1.08611043978724      0.52469462011601
  N   3.67212881407024      1.13087928345941      0.46674598624905
  C   2.86399177876975     -5.10838681159409      1.81696744122721
  O   1.70540481111847     -5.24397317489434      2.08048389350329
  H   3.46557502712918     -2.79858440080101     -1.68428123775464
  H   1.98991917795225     -1.89459432478442     -1.44119740437176
  H   1.54652049235307     -3.94960563471488     -0.39447454816761
  H   1.83463172354033     -2.83230887045205      0.91330221945301
  H   3.40544597657315     -5.26426467845977     -1.30418862543373
  H   4.00304579373618     -6.30351213944066     -0.02024842340756
  H   5.71670841770103     -4.74112366262443     -1.70881499144163
  H   6.17720505006176     -5.38754012513631     -0.11892803075376
  H   4.34608814315214     -2.65148706696733      1.53120853093967
  H   6.81168418769041     -0.04885978411547      0.25222148934859
  H   5.49327875861324      1.98914508857109      0.86653049402328
  H   3.66233189713211     -5.60481982201718      2.40543703831459
