32
Coordinates from ORCA-job 4095optt
  Br  1.28440316859419      0.27379438682808     -0.53519282367642
  C   3.12906813335569     -0.15723820044204     -0.34882086526919
  C   3.48368604760248     -1.47989815375424     -0.08211088755367
  C   2.45207956431816     -2.57467078700167      0.03610968566500
  C   3.05582575642582     -3.97363769057323      0.05442472340527
  C   4.25844254025673     -4.02705735693934      0.98919928304761
  C   4.80667976092597     -5.44097476147603      1.20150830892126
  C   5.50553921710801     -5.98172490484862     -0.04511665266853
  C   6.56740455313868     -4.99087191260389     -0.51637955702793
  N   6.04769810390590     -3.64607350868332     -0.73596425309043
  C   5.36202914997073     -3.11157082095194      0.43878138257588
  C   4.84933466612066     -1.72581819565452      0.11026186096146
  N   5.78991832108259     -0.78098655893754      0.02283847929453
  C   5.41967230162271      0.44946813784532     -0.26458395130301
  C   4.09165929989103      0.83568651869936     -0.46017035571813
  C   3.80963284321455      2.26172780926113     -0.77093910916761
  O   4.67374319950808      3.09368007808609     -0.85239969523572
  H   1.73478559934693     -2.48025186336479     -0.78048197125150
  H   1.88067748741125     -2.40518166470097      0.95489929787144
  H   3.35694984493698     -4.25514501666176     -0.95822624776035
  H   2.29697080999094     -4.69502948725842      0.36385019084707
  H   3.94265958180303     -3.62837236323745      1.96050361483004
  H   5.53100513774983     -5.41422062808494      2.02197183495623
  H   3.99894810921853     -6.10700778026847      1.51429465913783
  H   4.77945657341463     -6.14501169926856     -0.84761495274125
  H   5.96138978539047     -6.95081988304053      0.16935127262672
  H   7.04202176812489     -5.33005304561135     -1.43784182954640
  H   7.35389723476020     -4.91360318392095      0.24188864375793
  H   5.43245195442929     -3.63169181360049     -1.54240907225451
  H   6.13165072761900     -2.97881723568620      1.20696805619378
  H   6.19233843947664      1.20584353815776     -0.34463779460144
  H   2.75398031928537      2.52652804769356     -0.93396127522595
