23
Coordinates from ORCA-job 4096optt
  Br  1.01112767423853     -0.01334074779623      0.07831131911495
  C   2.88408989847017     -0.08011195655706      0.06132709480861
  C   3.60424634061753     -1.22255646098004      0.05503722375912
  C   3.25646351047322     -2.63906869418011      0.05555826507994
  C   4.38406696482640     -3.37827322086094      0.04904814510015
  C   5.56147352717014     -2.52115768621439      0.04461708944774
  C   6.84803317420438     -2.88647340320886      0.04157054205167
  C   8.01616327745589     -1.99852463308627      0.03929238128462
  C   8.05430897913647     -0.63802914911718      0.03698789271049
  N   7.05421562163283      0.27071599639036      0.03740266887312
  C   5.67453899489641      0.05571179664736      0.04394535011724
  C   5.03741814143449     -1.13197827122886      0.04714472761600
  C   4.90488967265768      1.29127703645945      0.04810606697626
  O   5.42340491727518      2.39981371070254      0.04422293040620
  N   3.53535739620246      1.12354587594993      0.05709845621387
  C   9.29337584548481     -2.64210424475818      0.03970414374224
  N   10.31165725684636     -3.17578556588701      0.04089333197019
  H   2.24354056644184     -3.01205682876455      0.06001764355193
  H   4.43365089313456     -4.45723457576880      0.04760365043073
  H   7.07753623239294     -3.94643431030438      0.04131468794061
  H   9.03460467334220     -0.17771613279396      0.03444762369538
  H   7.29136403656215      1.25507299383244      0.03546560998305
  H   3.00047240510332      1.98170847152474      0.06088315512590
