31
Coordinates from ORCA-job 4107optt
  Br  1.48717308695352     -0.51413373411669      0.87142059883473
  C   3.25448355803034     -0.37918626990662      0.24928018843024
  C   3.76592054846160      0.74801748589253     -0.28780660342852
  C   5.11247099965310      0.78812558051611     -0.78371572943515
  C   5.42301518200803      2.12332279373895     -1.40350695629307
  C   4.31891272684710      3.03826383337498     -0.85322440174394
  C   4.66861056175426      3.75015135312448      0.47295512029975
  C   3.74040652977250      3.11231298197375      1.52359707030070
  N   2.57784072367536      2.61390991647436      0.79231469480765
  C   3.11008591342605      2.11518202918674     -0.46980850667552
  C   2.00191974059250      2.06978714212048     -1.52931433702260
  C   2.47557462389309      1.60339653458407     -2.82858021258722
  C   2.87870351583252      1.22124526778520     -3.88996197434686
  C   5.87837239754909     -0.30975362531182     -0.67324070966765
  N   5.36405595420974     -1.44285706198359     -0.10498971821846
  C   4.06232116608239     -1.60004800899206      0.37376484374765
  N   3.60484809394510     -2.67814488498550      0.88117582519264
  H   5.34718969074990      2.05665443625910     -2.49050577914020
  H   6.42207091317512      2.48493848609183     -1.15746930910598
  H   4.00755013319906      3.76192262089556     -1.60676351676463
  H   4.46456643845221      4.81846573693581      0.39258205368913
  H   5.72176730019788      3.63656513461870      0.73178529379375
  H   3.42951957292986      3.80041913588412      2.30738582477044
  H   4.23126366784047      2.26232677456477      2.00334222556943
  H   1.93086848657284      3.37331591298850      0.60556309089414
  H   1.58817270098304      3.07674992650714     -1.64063733573107
  H   1.20075170723073      1.41874461961259     -1.17496451972586
  H   3.22449506330913      0.87153576521005     -4.83310903096091
  H   6.90414297301011     -0.37151658728130     -1.01005592985671
  H   5.96006297127629     -2.25089011160887     -0.02274804561199
  H   4.29886305838701     -3.42182318415339      0.89323578598612
