27
Coordinates from ORCA-job 4108optt
  Br  1.30922761363744      0.03885191381570     -0.25124735683343
  C   3.17103791267233     -0.27078265854960     -0.40010273183734
  C   4.05520859351840      0.80204296507790     -0.46229711661181
  C   5.40741754715322      0.53056813941536     -0.56350744049682
  C   6.22941065956962      1.78737052102465     -0.58844067906732
  C   5.21482015368940      2.95009734909351     -0.54111005402980
  C   5.31647378364123      3.83369083946548      0.70540303810801
  C   4.39093168009903      3.12731372124723      1.68974399420825
  N   3.23038962159368      2.69133167655475      0.90607820571416
  C   3.77678146039471      2.28881077256324     -0.40172117754164
  C   2.88284872585832      2.73281502247282     -1.47703161279415
  N   2.22218392911396      3.13214827055150     -2.32363910480466
  C   3.93866907031105      3.94593694234539      2.87461224643325
  O   4.40858066339408      5.00956807821915      3.16150889035169
  C   5.83768915411035     -0.78819640905479     -0.61099772594262
  C   4.86757173285431     -1.77398142418233     -0.55242722117093
  N   3.56019565481011     -1.52254369520302     -0.44674814295066
  H   6.85142818550480      1.82920125971067     -1.48338321396678
  H   6.90694891336443      1.81091449069025      0.26891049654629
  H   5.26955242527728      3.53855289276952     -1.45338801459860
  H   4.92508530866413      4.83456072162030      0.51497217176649
  H   6.33804483836527      3.93758291345527      1.06805202588065
  H   4.87364633789698      2.22581708069462      2.09446496934833
  H   2.58715181243832      3.46690229435638      0.77659830637411
  H   3.12325453902072      3.49505496677451      3.47005033859912
  H   6.88516215494692     -1.04671047435545     -0.69045183492313
  H   5.14128752809980     -2.82191817057301     -0.58890125576067
