31
Coordinates from ORCA-job 4113optt
  Br  1.19436710191662     -0.28245821628219      0.00479146483859
  C   3.06321561050663     -0.06354163008626      0.04845398653625
  C   3.64402553378221      1.15763586565278      0.08949660334534
  C   2.89298192239139      2.45838842404428      0.15750838738626
  C   3.83895031467148      3.57559291279172      0.57598028727367
  C   5.14999616520596      3.49860346998091     -0.19292071362681
  C   4.95831397608856      3.59552741966552     -1.70901762110228
  C   6.30003133475440      3.61894030751103     -2.44681401667039
  N   7.21456629259907      4.64323788104620     -1.96433014685196
  C   7.43409588956996      4.53423680971382     -0.52846375081547
  C   6.13813245235362      4.55751095231173      0.28407167218986
  O   5.79190821946137      2.23579348110111      0.10574445869063
  C   5.08808124241926      1.10165375435688      0.08816637972468
  N   5.80202999249689      0.02058045202764      0.09279356465839
  C   5.20236084334726     -1.20822854769330      0.08537579608936
  O   5.76581007555695     -2.27394970504504      0.10454644568063
  N   3.78603969556812     -1.19791734824158      0.03487305114240
  H   2.07023799613321      2.37202466992829      0.86821336831282
  H   2.44211718992383      2.68344302953555     -0.81291663128337
  H   4.06996766953292      3.49228829333835      1.64129213327245
  H   3.37804789829731      4.55057603754157      0.41313610437474
  H   4.40112814511083      4.51363697378741     -1.92252084352564
  H   4.35411538096434      2.75650998205021     -2.06482399287938
  H   6.13469397824970      3.76557182055679     -3.51444233395836
  H   6.79277291724318      2.65075947737450     -2.32539230100895
  H   6.85944219616001      5.56530343081979     -2.19506353932514
  H   8.09090039860901      5.34380646884520     -0.20933879248015
  H   7.95922509459377      3.59482875137037     -0.34243350145579
  H   5.65758660912543      5.53529390982565      0.17887837225815
  H   6.34123518723015      4.39692680457870      1.34554641695498
  H   3.33862267613647     -2.10257593240769      0.00860969225449
