20
Coordinates from ORCA-job 4120optt
  Br  0.97117864612717      0.23204992025244      0.09060442631562
  C   2.86506793786071      0.16730105416079      0.07512812886945
  C   3.63315675561159      1.29884621953471      0.06892294935274
  C   3.02238647455307      2.61831013503378      0.06897293609598
  C   3.73608523105692      3.75884453479187      0.06704344878645
  C   5.15953785705163      3.63839969968657      0.06556156071117
  C   5.81757551868845      2.41835921309506      0.06355024179712
  C   7.19246437207670      2.76274092268157      0.06325858932978
  N   7.35560370493733      4.06874096116427      0.06542439080023
  N   6.11625969169373      4.58545155871709      0.06644939616557
  C   5.09198629991818      1.17205883040628      0.06268496445971
  C   5.77762482672666     -0.01051573051794      0.05719088705343
  C   5.22524787766717     -1.32848304017311      0.05774142899597
  O   5.81937010894741     -2.37757600193318      0.05206835803995
  S   3.41910554105444     -1.44389113021024      0.07145765882557
  H   1.94439741875725      2.67078964195645      0.07030306446849
  H   3.25143014821672      4.72572982071302      0.06669980913730
  H   8.05888416582386      2.12104982735964      0.06231098845716
  H   6.00092422141872      5.58468955890571      0.06854459828196
  H   6.86071320181225      0.00810400437522      0.05208217405635
