24
Coordinates from ORCA-job 4121optt
  Br  2.11954482900421     -0.95110494693722     -0.10065813657174
  C   3.80747857159952     -0.23347476613894      0.32288924255024
  C   4.80625178882709     -1.07250582649014      0.65374265152778
  C   5.01748178230279     -2.54558881831595      0.47542174979652
  C   6.44605911125938     -2.56684612761416     -0.13774620104318
  C   7.17738020052743     -1.42718817238926      0.59253812641172
  C   8.11218642485678     -0.43861580311420     -0.24536413182875
  C   9.49975967169193     -0.49454745197080      0.21900401990876
  N   10.57641556967712     -0.59648187055479      0.59307489592994
  N   7.46884936174606      0.86833776522039     -0.02862619963375
  N   7.33982064651788      1.94230874702077     -0.89377496099591
  N   6.14324260470214      2.37929127887269     -0.78944693891328
  C   5.40879643118777      1.59114885248579      0.08128564567877
  C   6.28109319776425      0.67449087184015      0.54713371672359
  N   6.06414660666909     -0.56595635072305      1.03608687669224
  C   3.97419964129610      1.25488425584214      0.13856694140625
  N   2.97541069371888      1.99693361333440     -0.09012129463973
  H   4.26888431366366     -2.99043366923749     -0.17372474493011
  H   5.00129858485814     -3.06283378263231      1.43732610372021
  H   6.37401067773249     -2.33707081056591     -1.20270612118600
  H   6.94352554412282     -3.52707409599211     -0.02380370629709
  H   7.74017569485386     -1.78706020592926      1.45239851232907
  H   8.09119842976537     -0.67154768062812     -1.31225532860257
  H   3.27378962165521      2.95693499461739     -0.25924071803299
