22
Coordinates from ORCA-job 4122optt
  Br  1.09614574521792      0.25311193429377      0.23143840310876
  C   2.95277475657121      0.08964034814888      0.00437479026594
  C   3.57224698543448     -1.00431616347588     -0.49071883510888
  C   2.85781336061244     -2.23659585969216     -0.96735754509056
  C   3.01735675737379     -3.43070572965644     -0.02386182091011
  C   4.41622069367507     -3.92939482593001     -0.03394654360467
  C   5.58992084642449     -3.37928082316834     -0.45933622140038
  C   6.52536805480028     -4.44599130949405     -0.30198356356001
  N   5.96521320791468     -5.50584333807777      0.18258556703035
  O   4.62780396851894     -5.18493409115872      0.34194339938372
  C   5.90207074836800     -2.03519903904239     -0.95960917891914
  O   6.87271110100674     -1.81320636233211     -1.63006683725731
  C   5.00950378358618     -0.87328791439889     -0.51112199276667
  N   5.67048600262970      0.16981548078044     -0.14359507673812
  C   5.00197226425178      1.28345416939109      0.30921660961703
  O   5.47133821158873      2.31603741603463      0.64206783171957
  O   3.58670842726938      1.17516869993138      0.39556136523677
  H   3.23297119193924     -2.51382918660835     -1.95575665912056
  H   1.80042368807443     -2.01215015559164     -1.08283069446214
  H   2.36581633501555     -4.24924557822377     -0.33408627568797
  H   2.72534924280045     -3.15636776235706      0.99362678017892
  H   7.58078462692646     -4.43987990937256     -0.52554350191455
