23
Coordinates from ORCA-job 4124optt
  Br  1.10002385427038     -0.46027289099017      0.07440764767871
  C   2.94383065166697     -0.09453322366411      0.07435481640708
  C   3.51651615918922      1.14513056141239      0.07476503792744
  C   2.85131012359516      2.45244624585122      0.07647508870309
  C   3.56842112261297      3.60845541901386      0.07342525036367
  C   4.99765290804529      3.59671874103547      0.06915421795610
  C   5.96419523128935      4.54795920426598      0.06517732839669
  C   7.25449125051183      3.86416259315828      0.06265684094110
  N   8.45662156493824      4.24326278260703      0.05874873444721
  O   6.99748082052371      2.49360202427117      0.06531247615086
  C   5.65523286931726      2.32808824218095      0.06903296261310
  C   4.98257970301388      1.16626695077467      0.07215497312860
  O   5.71377578381089      0.00911570477985      0.07207561657561
  C   5.08689287115955     -1.16814890413574      0.07219450964178
  C   3.75528059434588     -1.28413077590377      0.07304553913166
  C   1.42815080229103      2.61563499572009      0.08257327281027
  C   0.26389756159132      2.90094860736677      0.08810776373250
  H   3.03737757161111      4.55050758230232      0.07486119571947
  H   5.85420793827294      5.61969935074991      0.06404871563345
  H   8.50423746856852      5.25766845464586      0.05716603890776
  H   5.77685922793298     -1.99925486398224      0.07154045852071
  H   3.29532516530039     -2.25869128133966      0.07286374490787
  H   -0.77836124385892      3.11436447987985      0.09285776970526
