25
Coordinates from ORCA-job 4125optt
  Br  0.68373096309156     -0.22888037673526      1.88067521045380
  C   2.49860964342452     -0.04537400372021      1.43720272395603
  C   3.28508110595239      1.03168390997163      1.67703265053456
  C   2.67617458130456      2.21411437924990      2.31059661644375
  C   3.21413137067759      3.41645887799790      2.52223634573674
  C   4.62212658898614      3.80086240933329      2.18993347442511
  C   5.00385756110283      3.47396580677685      0.73368968274003
  C   5.58319643639780      2.19855038572216      1.36411479756719
  O   5.55180172122150      2.80746180323519      2.66782281495032
  C   4.71498432594359      0.97240468112427      1.31579639338867
  C   5.32788825429664     -0.18652331158141      1.04197731119736
  N   4.66463977847245     -1.40601796283733      0.96258706951859
  C   5.37969576479533     -2.61221780753080      1.09168906955294
  O   6.55624638675994     -2.62718881599322      1.29603157028021
  S   3.06289418048906     -1.41021104796553      0.48406923066904
  O   2.98743967583367     -1.05627668311995     -0.89263470637528
  O   2.51161153697677     -2.64529839097358      0.93381782769658
  H   1.64495923653747      2.08111662753150      2.60328478525634
  H   2.57909686243955      4.17802234666760      2.96038862942083
  H   4.87032034397769      4.79202130109045      2.56520281175699
  H   5.78432776966543      4.12563470687094      0.34990895546449
  H   4.19693485329059      3.36687652570953      0.01398738384049
  H   6.59955471383751      1.93360802823517      1.07317105957596
  H   6.39830196605825     -0.26313869283809      0.90590975218475
  H   4.74039437846715     -3.49465469622102      0.99250853976451
