24
Coordinates from ORCA-job 4126optt
  Br  1.19776609013283      0.13381073368825     -0.55627156709192
  C   3.06914108950945      0.01804635124312     -0.33129436269536
  C   3.65619445592514     -1.21259091215919     -0.22668783905082
  C   3.13533117631097     -2.54278958088906     -0.25428829924671
  C   4.18234256755691     -3.40754555155949     -0.07867798610107
  C   4.08950782035493     -4.89243633943050      0.01154424768352
  C   2.99096997693062     -5.62471068176459     -0.77404345879880
  C   4.15605830098218     -6.46617600075256     -1.31108419349092
  O   5.12286580830431     -5.57392157246229     -0.72849734761309
  C   5.41374424788602     -2.66693192358425      0.06372402432911
  C   6.76396640319248     -3.15907855818600      0.27528032854320
  O   7.71086506598725     -2.40558186884160      0.37781901772904
  C   5.09431752141519     -1.33006085907742     -0.03248299032533
  S   6.12266352234296      0.02139650013923      0.04576089805811
  C   4.98345864763784      1.27739775531745     -0.13714775635910
  N   3.69947375173852      1.20394922755086     -0.29055797780126
  H   2.09552844411361     -2.79645191669418     -0.38812022322888
  H   4.12726731144834     -5.19728866063063      1.06445175920429
  H   2.52457190459956     -4.99799068179074     -1.53101425294683
  H   2.23297531067724     -6.14147176246081     -0.19248051034351
  H   4.26647462901222     -6.52977854409156     -2.39295788103411
  H   4.22995850101692     -7.46414826457980     -0.87355761619651
  H   6.89480349982108     -4.25005465268403      0.33949765990027
  H   5.43475395310339      2.26440776369987     -0.11191367312330
