26
Coordinates from ORCA-job 4127optt
  Br  1.38245917611724      0.26657606756692      0.43954695922176
  C   3.26607304721104      0.20331199074446      0.29881390971776
  C   4.03244402399048      1.34884601630721      0.28737225700995
  C   5.44891798212792      1.17508588710607      0.04522775651738
  C   6.36403026502019      2.40614975312814     -0.27377624796015
  C   5.25010894612779      3.44161849709294     -0.35264210190114
  C   4.46765902182360      4.68844154205062     -0.76561761730917
  C   3.10177404653172      3.96601591441044     -0.35689703195140
  O   2.00431182069372      4.24432005464767     -0.68818951106500
  C   3.53861268097325      2.78393193771021      0.68245668565265
  O   2.62332658366600      2.81093458907427      1.71617338023048
  C   2.98259964611407      2.17883679923398      2.87942441863256
  N   2.19433159660264      1.99278230046407      3.82937125716554
  O   4.76034718309881      3.36504814623933      1.01030213168976
  N   6.00951853926059     -0.00690179082054     -0.05615325400887
  C   5.23991918083411     -1.09771202348622      0.04268204863488
  C   3.87225855057285     -1.04783809288805      0.18586585587300
  H   6.87434239426436      2.20649084271534     -1.21484014089636
  H   7.09132336346831      2.58138279253857      0.51591304699885
  H   4.64590414613297      2.80387710528301     -1.01008563854457
  H   4.43779234830954      4.90142010614202     -1.83146597329192
  H   4.64809674045682      5.58720454840726     -0.18113822179713
  H   4.02323581178604      1.86588809765802      2.92066872042700
  H   1.26263246016821      2.34783307247752      3.60878255743168
  H   5.74991346191821     -2.05112465456859     -0.02704919472941
  H   3.27906698272949     -1.95041949923470      0.21125394825187
