25
Coordinates from ORCA-job 4130optt
  Br  1.00080894946916      0.60093864381969     -1.19451167586544
  C   2.79707140114975      0.35336415414448     -0.71648436015948
  C   3.34428991288685     -0.85681427751152     -0.47016451580634
  C   4.76061580098500     -0.86659563880309      0.02864930005500
  C   5.51141854599637     -2.13856927440721      0.50428099646930
  C   4.39824834964562     -3.14756574108265      0.46479574724054
  C   3.21884539272880     -2.80680900225554      1.39489353444986
  C   2.21436097125492     -3.19323151660055      0.35263349500890
  O   2.69291589783852     -4.51313932562022     -0.02738315692975
  C   4.06205070213349     -4.59616873737743      0.19893289863645
  O   4.67886923481072     -5.59803971585101      0.07891621122556
  C   2.45274509202888     -2.12660347967849     -0.77964093616065
  O   1.99924166095466     -2.26558935049867     -1.87317833524051
  N   5.43482433552638      0.21822770850521      0.13136682720084
  N   4.87729802034815      1.37671363908512     -0.21541807002464
  C   3.56332495697325      1.60513075648647     -0.58685942853367
  N   3.04899549162975      2.74534669535533     -0.80939244852726
  H   5.93237496373018     -1.95715167291286      1.49195517579498
  H   6.32098231552250     -2.37168314665993     -0.18680800060954
  H   4.09003651259427     -2.90895902479865     -0.56302473248577
  H   3.17363346240940     -1.77252915389227      1.72047207931259
  H   3.20145534917142     -3.46104964017909      2.26617663804001
  H   1.15830555564822     -3.28846807404695      0.59364790153366
  H   5.48213948215109      2.17403278471271     -0.09245235887723
  H   3.71314764241260      3.50521239006715     -0.67640278574739
