25
Coordinates from ORCA-job 4132optt
  Br  0.99145437431766      0.04970631918131     -0.13270565728610
  C   2.87679989527533      0.01210045636428     -0.01249837531462
  C   3.60965508421423      1.16938599841871      0.00908760606414
  C   3.25576135792283      2.63497886155270     -0.01411166032304
  C   4.61065407954606      3.31496282698856      0.07476926828922
  C   5.59205494751223      2.40562945226256      0.14031525628316
  C   7.08115404406727      2.41412020223422      0.30578286431344
  C   7.64862750221848      1.13514121685435     -0.32504921701715
  O   7.06551502294527     -0.07261639723815      0.18117974752132
  C   5.70759399435888     -0.09270523749005      0.12779480799024
  C   4.97427669703766     -1.28875478268747      0.12416957443920
  C   3.56462251132187     -1.21000691499626      0.05308854092660
  S   2.86217241574066     -2.78845852331758      0.05229847466462
  C   4.41831333100047     -3.53042792111424      0.14706580553654
  C   5.43624842775243     -2.64340512865053      0.17725139064002
  C   5.00436932728085      1.08228312496670      0.08490067285682
  H   2.60833321922792      2.90280264490319      0.82676671346088
  H   2.70986059842598      2.90521433952564     -0.92306352994419
  H   4.72542726058558      4.38950810238753      0.09894190984292
  H   7.32832305514700      2.42599755656049      1.37102558601839
  H   7.55502111430585      3.28181346362355     -0.15442944682802
  H   8.71395634182768      1.04058064019704     -0.12976916422826
  H   7.48443046762958      1.15950876395133     -1.40698577549035
  H   4.48568847442034     -4.60644325206547      0.17640956796560
  H   6.47968645591785     -2.91491581241240      0.23476503961862
