29
Coordinates from ORCA-job 4137optt
  Br  1.31774431090633     -0.31761200452178     -0.18252972099883
  C   3.21568560302179     -0.13947391084928     -0.05967755186610
  C   3.76375578605439      1.12968824142281      0.16387887875435
  C   2.90432471920816      2.35526319452454      0.33405380858793
  C   3.68784094511799      3.58573548796629      0.78481867347519
  C   5.00856148714194      3.71823982476140      0.03808133890344
  C   5.78097186171960      5.00344158884600      0.38535979409036
  C   6.74072314140140      5.18342643600115     -0.76971221148484
  O   7.80552741209478      5.72048320095493     -0.78780282019363
  C   6.09182012467731      4.46450924749912     -1.99251701383653
  O   6.55400807724100      4.45234059525027     -3.09169969348611
  C   4.82305481823615      3.81055514472703     -1.49198123153759
  C   5.87362612105458      2.50309870742891      0.38536049007411
  C   5.15664714195388      1.19242967226618      0.18241739168775
  C   5.88953369336634      0.02029671347852      0.01359631239435
  C   5.22100224813644     -1.17209799476821     -0.17003708360728
  N   3.89048564074303     -1.24889862297921     -0.21292530726212
  H   2.10621053343658      2.13929622840070      1.04561418242068
  H   2.39843540008015      2.55469764587550     -0.61634703389399
  H   3.89866885227914      3.52149112288066      1.85668362064227
  H   3.08024470313032      4.48074313324350      0.63189361786907
  H   6.29389023170119      4.97762551234155      1.34591181360109
  H   5.09733409745722      5.86081263859498      0.38296129254785
  H   4.64396541425781      2.85529420937835     -1.98543956298715
  H   3.98596657399678      4.47664702856930     -1.73211254856467
  H   6.18267444525837      2.57909158917718      1.43313369415161
  H   6.79714320413152      2.49760110931100     -0.20432170627597
  H   6.97197101128084      0.04589240612259      0.02030936973110
  H   5.75718240091488     -2.10461814590401     -0.29797079293633
