22
Coordinates from ORCA-job 4144optt
  Br  1.77069421665222     -2.13156929666356      0.73589808671766
  C   2.96922938800547     -0.80499484074135      0.20384802474138
  C   2.66792981224293      0.50424537596279      0.23700670533971
  C   1.47798373150642      1.24408999590845      0.69153592617354
  C   0.79114259102529      1.90772343008415     -0.23696347849445
  C   0.89863245968816      3.36950422594472     -0.13301841652801
  C   0.18473714821293      4.49431120694294     -0.14609073523534
  C   1.14010442998485      5.62759199742742     -0.18582160437769
  O   0.94857383947924      6.79892343503877     -0.20023581132380
  O   2.42075763505949      5.09353648739289     -0.21970167008294
  C   2.33102746384022      3.73122343286917     -0.17313292052284
  C   3.43986480498934      2.96288859960119     -0.21892491116429
  C   3.65606847559497      1.49338811354534     -0.20000488849727
  N   4.84172309660415      1.12332662400823     -0.57913570646235
  N   5.10602568867095     -0.17564478150732     -0.59605149321402
  C   4.28679470235657     -1.24509931258354     -0.26370571564576
  O   4.67820386923566     -2.38386428446024     -0.35728381353496
  H   1.60275446113386      1.70892337562159      1.66720214055028
  H   0.73557989720570      1.51713653603153     -1.24951322912129
  H   -0.88276731597864      4.63893473691807     -0.13964172164071
  H   4.37152157444710      3.50807383003579     -0.32043961066238
  H   6.03641803004307     -0.42064888737706     -0.90782515701446
