28
Coordinates from ORCA-job 4147optt
  Br  0.97490668739360     -0.50386462948332      0.88935519688001
  C   2.14776170041683      0.45981699287989     -0.27331133134381
  C   2.82861398971220      1.56115930320005      0.09108543194106
  C   2.63583843491395      2.27931761719316      1.39617916651909
  C   1.23350951152024      2.90441967524097      1.54549061321011
  C   0.66537527914572      3.60040977902438      0.32396818530905
  C   1.30998956025243      4.69436109213167     -0.45891756335394
  N   1.23512504188462      3.35564733616322     -0.97823688288830
  C   0.35476107120931      3.00169048880718     -2.06555792795722
  C   0.10966202240586      1.50208461481481     -2.05078916652396
  O   1.24287152517645      0.77041320098849     -2.52347746054180
  C   2.19489718384302      0.28030471798920     -1.72236095683811
  C   3.46766184761229      0.11652060355022     -2.17568840730040
  S   4.12613428837626      1.69422577767910     -2.54792780785724
  C   3.75065268414623      2.35127688835755     -0.89412437001569
  O   4.23591882843285      3.39126062409657     -0.56073052894639
  H   3.40138312778331      3.04801429156484      1.47641314303212
  H   2.77698822424302      1.57333905714491      2.21727807171132
  H   1.26051192796173      3.60892428677353      2.37958859987649
  H   0.53009058107054      2.12094833108607      1.82941379846781
  H   -0.42224552010785      3.66672729580717      0.34146450540354
  H   2.31241402224874      5.02858002016869     -0.21466474765148
  H   0.64868198061166      5.44420856719645     -0.88331841885281
  H   0.82341286345523      3.28283498518495     -3.01099448498225
  H   -0.61725651682122      3.51500649249741     -1.99399523400424
  H   -0.69123813327607      1.24868566153226     -2.74360422891233
  H   -0.17798574681172      1.17364633794391     -1.05048423336544
  H   4.11656353320075     -0.48595940953338     -1.55505296101515
