25
Coordinates from ORCA-job 4149optt
  Br  1.33613151716469      0.79511867339723     -1.11997178704382
  C   3.13526304850823      0.33286071101893     -0.72454771694483
  C   3.51644531100117     -1.00956895063778     -0.62026957239568
  C   2.59502400061085     -2.17735704773688     -0.81136313854430
  C   2.10813532330357     -2.77737901345972      0.51131694149436
  C   3.14463772149719     -3.53328261242751      1.35800909671239
  C   4.05992221274175     -2.79253161466461      2.29508934575641
  N   4.59194692281593     -3.48766105041245      1.15517143861675
  S   5.52872426332695     -2.82145193746653     -0.01891183002202
  O   6.82296508446743     -2.67038136178129      0.54284367150434
  O   5.30120542882618     -3.57658542290138     -1.20819613766576
  C   4.85636438934033     -1.15960327172926     -0.27313916612648
  N   5.70203249203561     -0.16550659628089     -0.07835949895210
  C   5.21181136767972      1.05351449184971     -0.24450932744549
  N   3.95287767498382      1.34565461844850     -0.55186963886890
  C   2.69373548097213     -4.84416769332230      1.78318207236143
  C   2.28656416241422     -5.91346896647151      2.13310869495011
  H   3.09697847742020     -2.94182457872279     -1.40191378493540
  H   1.72160468014684     -1.84958645730934     -1.36993679364910
  H   1.31832384810369     -3.48880836542420      0.27724274997960
  H   1.65641544078159     -1.99647128807110      1.12616224653371
  H   4.30822400677593     -3.21698897155391      3.25873558231484
  H   4.00886703162114     -1.70857078837931      2.24526403172144
  H   5.89137134050866      1.88575631119909     -0.10802944172645
  H   1.93842877295211     -6.87070881716067      2.44089196237496
