22
Coordinates from ORCA-job 4150optt
  Br  1.17645885174922      0.28054801411550     -0.26192163752586
  C   2.89795473301610      0.10997676352547      0.43070844848189
  C   3.60052074456107     -1.04065412666057      0.48761919995709
  C   3.69844480989787     -2.29487674357228     -0.30363497455273
  C   5.00277090616068     -2.65664605150655     -0.42994014950028
  C   5.86236645689371     -1.67091155655333      0.27404804493487
  C   7.00328449829100     -0.89075045750477      0.17300445912445
  N   6.78704447890915      0.34053040103226      0.83713481455345
  C   6.99898643877812      1.69770930669739      0.32795146455916
  N   8.06369969626286      2.18683622005732     -0.11919031169981
  C   5.65273554524005      2.37228822345915      0.34603049311248
  C   5.42442002675383      3.64941512377213     -0.20618143761715
  C   5.24426792952088      4.73606190350638     -0.68179923251979
  C   4.77516622456724      1.46918619499467      0.86745288844473
  O   3.41202964174139      1.34478976013292      0.80636756494415
  C   5.48310619659592      0.31344082689107      1.25458219582052
  C   4.93134754914616     -0.86865184738374      0.96842403178629
  H   2.86645344639892     -2.79449912040530     -0.77552461396039
  H   5.34384678961604     -3.49219280726691     -1.02226588252950
  H   7.94341212963891     -1.07174983783084     -0.32334820831022
  H   8.84407186730063      1.53642434136287     -0.05443516293238
  H   5.09161103896020      5.69972546913715     -1.10508199457095
