23
Coordinates from ORCA-job 4151optt
  Br  1.13110187341433     -0.19555314018849     -0.83452823955231
  C   2.92984849167849     -0.28619890268327     -0.33420936431945
  C   3.47435339997145     -1.33468527797567      0.30355558358354
  C   2.70401052683210     -2.51501024832799      0.82385428095882
  C   2.87161034658402     -3.78708469458990     -0.01783261777000
  C   4.28668694422398     -4.20976284363693      0.03182041569487
  C   5.36661822094247     -3.60125058754487      0.49914632552334
  N   5.59531122617639     -2.34669378902084      1.05022989902330
  C   4.91597847656811     -1.24509781843980      0.51887862973007
  N   5.63658423241993     -0.21562519826958      0.27981654457624
  O   5.01105440036284      0.90097751131426     -0.20421529978988
  C   3.72276303705131      0.91700692570809     -0.65024488267715
  O   3.31853843608118      1.89211900903430     -1.20219098328850
  O   6.45766727989053     -4.42253469558534      0.36869722786365
  C   6.00215645999244     -5.58855432102100     -0.20894083139538
  N   6.66248070619775     -6.60765196039986     -0.48857108495849
  O   4.67632945260637     -5.45852744049232     -0.43782964483513
  H   1.65146242671009     -2.24973716401387      0.87490269907314
  H   3.05038957597164     -2.71878703145619      1.84004146858327
  H   2.54193974074899     -3.61004613442288     -1.04518990888429
  H   2.23909627874646     -4.57683844998009      0.39349156120373
  H   6.57506898311237     -2.15362771445162      1.21926352494666
  H   7.63994948371669     -6.49783603355611     -0.24194530329005
