26
Coordinates from ORCA-job 4153optt
  Br  1.07777212002155      0.17015630620012      0.80106465843783
  C   2.92717761079710      0.06244007001432      0.43070860005600
  C   3.64042464053891      1.20246906270940      0.11530406659216
  C   5.00868261535097      1.10776174392369     -0.19944939158469
  C   5.60326330930497      2.47942252841889     -0.51130196915083
  C   4.53965710834773      3.33589547789673      0.16194284401496
  C   4.20489798030518      4.81567464258514      0.21224469984578
  N   2.76509074202735      4.84403315918588      0.56102560445104
  C   2.28703472815612      3.69710012934815      0.37504034016056
  O   1.00297136276618      3.46261274677287     -0.03895581752697
  C   1.17288729172629      2.86052663257469     -1.27706844751944
  O   0.27291000362465      2.61355854230850     -2.00863805638332
  N   2.53633185586458      2.65486731464806     -1.48761370618832
  C   3.21682076320235      2.63083004428279     -0.17437424554215
  C   5.64865457866192     -0.11807303649528     -0.17143932290329
  C   4.92035966774338     -1.25293898328957      0.17274367748246
  C   3.56916179545012     -1.16989659362286      0.47718738045982
  H   5.65214789067359      2.65010189351275     -1.59012254738191
  H   6.60454982421030      2.59720436776619     -0.09913520617955
  H   4.61982490103957      3.07021955617444      1.22318718806377
  H   4.26841145777518      5.32549582791085     -0.75238137715223
  H   4.80371218329321      5.37147468062706      0.93099949128077
  H   2.74448312182541      1.94519089600863     -2.17728384475291
  H   6.70289998215497     -0.19408460994784     -0.40672123267576
  H   5.41008035530193     -2.21737213160412      0.20739575034494
  H   3.00879210983646     -2.05467026790950      0.74564086375129
