29
Coordinates from ORCA-job 4156optt
  Br  1.30165844368081      0.33870455434877     -0.56325542175748
  C   3.09567942955408     -0.20414196889235     -0.64287786421955
  C   3.54255018300235     -1.38509230009101     -0.16775055246958
  C   2.67226136228474     -2.41817435129151      0.49660753358648
  C   3.31263122211157     -3.80132620031676      0.47388020693911
  C   4.73924899471784     -3.75645331445918      1.01145387189437
  C   5.45192445119520     -5.09901542370786      0.85509056996658
  N   5.89911821228005     -5.07652448050708     -0.53116552719153
  C   5.96770341535668     -3.73239790322988     -1.07145213972957
  C   5.60643699426576     -2.84106577465824      0.13630860353646
  C   4.96481191757872     -1.55847084539694     -0.31778759014165
  N   5.76125159845400     -0.68663698827932     -0.85425401537747
  C   5.26870136673558      0.49334803845341     -1.34610122044655
  O   5.87283420394167      1.36351604649061     -1.87658794793913
  O   3.86695160558616      0.70276017369164     -1.20398897064207
  C   5.94663039504239     -6.17999376276255     -1.33192027014806
  N   6.19456166214470     -6.24711206932776     -2.57674827747823
  H   1.69875332180441     -2.44267015511273      0.00710452255626
  H   2.48899714290085     -2.11927615328240      1.53407648237544
  H   3.32681723192998     -4.18925665985313     -0.54931250423339
  H   2.71205731403668     -4.49128893318681      1.06846416356373
  H   4.73470924008452     -3.42418806916618      2.05158919810480
  H   4.78835127891880     -5.94698718985859      1.03364338557069
  H   6.29832003313745     -5.17327810543108      1.54540669526338
  H   5.24740836323404     -3.61172747175521     -1.89073057936953
  H   6.95589855846709     -3.48445248852601     -1.46216530949190
  H   6.52756935855969     -2.57524822616814      0.65701445985702
  H   5.73758378664832     -7.10455958609061     -0.79260663881365
  H   6.39357891234578     -5.33399039163307     -2.98293486376498
