28
Coordinates from ORCA-job 4158optt
  Br  1.08816871580649     -0.04572197180828      0.54504258518320
  C   2.96056586528862     -0.05603047049919      0.26900804002232
  C   3.63406606569306      1.13723260940354      0.05953448200986
  C   3.16645765503537      2.56759716336186      0.07040249344522
  C   4.48914798510922      3.35223126460223      0.23250237481761
  C   5.54016736306832      2.46100072026765     -0.45252990727493
  C   7.02707459634693      2.58537517440531      0.00243058102218
  N   7.61414087552321      1.36112344668022      0.53974900098078
  C   7.24238566289979      0.14772756451388     -0.19486236828376
  C   5.74476434714693     -0.07219138212399     -0.12899059669259
  C   4.99643214187731      1.08848110417414     -0.18502469525650
  C   5.04905304911856     -1.26447916671956      0.10479683047335
  C   5.73828957043205     -2.57794985726748      0.16552949975577
  O   5.18212050909042     -3.61375827763263      0.41680567645949
  C   3.66239091970850     -1.24926246882778      0.28648129570933
  C   7.85431422361002      3.03003737450536     -1.13548515817159
  N   8.46548250208082      3.35390156929572     -2.04891330297786
  H   2.44466794525931      2.76410135124426      0.86260939846700
  H   2.67869253606885      2.81082648264997     -0.87849447724151
  H   4.72917885869675      3.43047414366539      1.29677886331931
  H   4.44174778516552      4.35815526047550     -0.18083641091325
  H   5.49798990762007      2.63308531544822     -1.53271817365391
  H   7.10983673136276      3.35235767308382      0.77489523726363
  H   7.34679674491748      1.26193762232429      1.51192442461173
  H   7.80459697030408     -0.68071446595968      0.22899969318710
  H   7.57689420544874      0.26881591069831     -1.22982808443592
  H   6.82117325194773     -2.56989047419784     -0.04789147752607
  H   3.15740301537299     -2.19046321576327      0.46008417570002
