28
Coordinates from ORCA-job 4159optt
  Br  1.00364964073334     -0.11228631447470      0.18308312287464
  C   2.89501455531183     -0.09630047115345      0.06347406043137
  C   3.56429551065112      1.08545688492977      0.03617249095870
  C   3.15514310417344      2.53670530786987      0.06234057059379
  C   4.50272119053392      3.32569445836042      0.02276001194464
  C   5.57592359423496      2.26106680848596     -0.05508993399285
  C   6.94114753240275      2.29511835467141     -0.13248017963151
  N   7.68793526962818      1.16237369699770     -0.19840422382462
  C   7.10154389662952     -0.01150884108519     -0.18189484952531
  C   5.69944167535186     -0.18372210802216     -0.09162428354552
  C   4.96720296483226      0.99899256960859     -0.03716054466757
  C   4.95502463151227     -1.40951853179356     -0.05698813158952
  N   5.62671199491382     -2.60918700496786     -0.13185182472921
  C   4.93015243982412     -3.85721314951016      0.10439936507134
  C   5.87910907781789     -4.96435585798285      0.16211408031420
  C   6.67517439802662     -5.85487174601166      0.22479685189257
  C   3.57546204931573     -1.33958786686808      0.02142725881814
  H   2.57498055249521      2.76904824797254      0.95655408880308
  H   2.52224419377710      2.77888388622911     -0.79317172970673
  H   4.62707824838307      3.94183593230125      0.91376522739470
  H   4.54685640631292      3.99563476314927     -0.83640433278276
  H   7.49945162644980      3.22427501237804     -0.14984178126981
  H   7.76494336959612     -0.86899349014250     -0.25217963799718
  H   6.59008617168143     -2.60392635980943      0.16060987507121
  H   4.21510307483758     -4.03545152157924     -0.70432216146124
  H   4.35634011322203     -3.82678427020426      1.04051675137368
  H   7.37678657644318     -6.65291646952446      0.27733203806960
  H   2.98047614090783     -2.24046191982435      0.05106782111219
