22
Coordinates from ORCA-job 4163optt
  Br  1.02617195517301      0.15543503026744     -0.01667231947172
  C   2.91565694366980      0.14182163601152     -0.02130434749978
  C   3.64150406032574      1.31639468492143     -0.02253500610358
  C   2.97967114187514      2.60169541595762     -0.02191695572483
  C   3.66326375294362      3.76447220521297     -0.02234860196268
  C   5.08691259906627      3.76146555226469     -0.02321381497095
  C   5.79027172790757      2.60110179868980     -0.02429760114945
  N   7.18132365023262      2.61425272214536     -0.02519464808190
  C   7.75801103747550      3.74902042686682     -0.02457940777943
  C   7.05728315030411      5.04884119158926     -0.02307020869615
  N   7.57344949423551      6.19591004025515     -0.02208730305719
  O   5.69368551319278      4.97258231332861     -0.02284564514985
  C   5.09330779073375      1.32854110423608     -0.02444203432289
  C   5.83139272838609      0.18360989731252     -0.02597585063105
  S   5.21424083152703     -1.38417497266593     -0.02621636334435
  C   3.43744957162283     -1.21040198612113     -0.02326034678479
  O   2.79678689311804     -2.23252291467516     -0.02310574329790
  H   1.90114133856776      2.62248440255020     -0.02117298127415
  H   3.15443177708146      4.71955645168071     -0.02197536944990
  H   8.84404219326266      3.78792065480615     -0.02513297757720
  H   8.58805931517121      6.13431279252334     -0.02244485786282
  H   6.91194253412743      0.24668155284253     -0.02720761580745
