27
Coordinates from ORCA-job 4164optt
  Br  1.26825284752329     -0.41521491412249     -0.25794054956403
  C   3.07133114300371      0.10815090575512     -0.31502461106383
  C   3.53024779057504      1.35630252742646     -0.14517818315441
  C   2.88855928926774      2.66738222144575      0.05198996003831
  C   1.45595637068194      3.06051881395538     -0.12705187138207
  C   1.12964597867367      3.54986293021121     -1.55526871584256
  C   1.54694751965082      2.56362378452230     -2.67029420830150
  N   2.81438216503814      3.15377115411222     -3.10091683860222
  C   2.78067270102266      4.46628729858112     -2.67825871160750
  N   1.88269340014196      4.78233288641583     -1.83798894193565
  C   3.89142627851409      3.54943353774714      0.28001199045715
  C   5.18614801412654      2.89159089035318      0.23435634119628
  C   4.97450004936826      1.58762781814944     -0.03518041413660
  S   6.14665598195632      0.30802025109859     -0.07293287700951
  C   5.17935757174279     -1.01826542608121     -0.70298628596670
  N   5.63469865112414     -2.06670432554521     -1.21209892793301
  O   3.81208089049426     -0.98876209066621     -0.53809416027460
  H   1.24522167760781      3.89531297593378      0.54347063343401
  H   0.77418370627894      2.25400160136532      0.13415184120401
  H   0.06159781112088      3.76522605522013     -1.59168858936565
  H   0.81747768359516      2.55685413312808     -3.48487861244835
  H   1.68297105805524      1.54585819385304     -2.31019372754494
  H   3.17630640042993      2.94336843182112     -4.01713258130268
  H   3.52704108993198      5.16264445166465     -3.04468553532101
  H   3.74436553643937      4.60838752895551      0.43476483819180
  H   6.14227486718620      3.36268818962737      0.40465244231479
  H   6.64600352644904     -2.03529982492770     -1.30260370407948
