27
Coordinates from ORCA-job 4168optt
  Br  0.99575777839651      0.04062766360534      0.23234721401087
  C   2.88467079832302     -0.00741886116945      0.02500403652922
  C   3.51434728056918     -1.13139113832492     -0.50902057600332
  C   2.77475298580655     -2.35294305055768     -0.97939395702706
  C   2.89066959290260     -3.51295895215115      0.01555587824011
  C   4.28327688360651     -4.04698436076832      0.05371737598707
  C   5.41586487169235     -3.48641649553331     -0.47298056381689
  N   6.43039477407395     -4.38259371732508     -0.25326879613224
  C   5.87209293072529     -5.44476091378122      0.37772555150118
  N   4.59542244603393     -5.27095136281764      0.58869785757373
  N   5.63937454673426     -2.22169647158943     -1.05653131167938
  C   6.65821908371423     -2.02810405967604     -1.95121300695993
  O   7.45997996829704     -2.87091032154614     -2.28038369291503
  C   4.91389275420768     -1.09016085505875     -0.56640080325928
  C   5.63174150438769      0.02145335522923     -0.14619731956294
  C   4.96347255420660      1.13543458469222      0.33409940735174
  C   3.58373490653858      1.12064136200758      0.43043444675740
  H   3.19244456217805     -2.67112504642698     -1.93798586938308
  H   1.72961426430710     -2.10714102733334     -1.14369601779322
  H   2.22498540877043     -4.32451567550028     -0.28368633461021
  H   2.56444144661786     -3.18682388207897      1.00698796567165
  H   7.34768907569668     -4.30569488582021     -0.66478188678881
  H   6.44357669449768     -6.31913064310174      0.64363541778838
  H   6.67292265149943     -1.00369572240489     -2.34679465088378
  H   6.71327015899646     -0.00133736975455     -0.17206341553999
  H   5.51955300286719      2.00489052288971      0.65756574566456
  H   3.04683707435309      1.97070732429600      0.82662730527926
