31
Coordinates from ORCA-job 4169optt
  Br  0.95011498041935      0.11732270746564     -0.37519787850085
  C   2.81096442413007      0.09829990609431     -0.11336316568034
  C   3.50675242333779      1.23210457418046      0.10729823095453
  C   2.84707241847293      2.58774845125713      0.08831918411369
  C   3.75030206020768      3.74573663959661      0.50663758277086
  C   5.19226832441977      3.59928641903033      0.00769227095882
  C   6.00177784374280      4.85313528706946      0.38081236817814
  N   5.71972634692450      5.74918480103175     -0.72478714441863
  C   5.39614881375072      5.08289054498827     -1.88768457448512
  N   5.22237440462487      5.53498836369155     -3.05937918683065
  C   5.27195732744540      3.61792931093741     -1.52690837858428
  C   5.77284747733089      2.33860449244226      0.63334959132299
  C   4.94634858608185      1.12609337565182      0.29443409145454
  C   5.50860336996311     -0.07758032479360      0.15680523457087
  O   4.81947549835928     -1.20531298342724     -0.10197841849292
  C   3.44361601223770     -1.21706341764602     -0.19839876820555
  N   2.82129112963942     -2.29791710817296     -0.37074005641473
  H   1.95553574499272      2.55976689226680      0.71663567407592
  H   2.47057674848645      2.74552793699089     -0.92710360189320
  H   3.78102013311488      3.81004561665992      1.59837015915422
  H   3.32446441935925      4.68364979312288      0.14390208425292
  H   7.06969147623136      4.61340654293832      0.45680420902793
  H   5.67471010689018      5.27745553522657      1.33205540349629
  H   6.09718698307408      6.68153911007561     -0.75978499068454
  H   5.37513116317944      6.54131094990898     -3.10754299486960
  H   6.17854814372745      3.10981320302709     -1.86887474855393
  H   4.42890608042413      3.15900418267845     -2.03889413371864
  H   5.79939252572838      2.47601375998509      1.72064879472088
  H   6.80361819173230      2.18468258939887      0.30504299405252
  H   6.56999541422024     -0.26801632246898      0.23983196680987
  H   3.46558142775096     -3.08465082920771     -0.40900179858201
