23
Coordinates from ORCA-job 4170optt
  Br  1.10999138793022      0.48862816899068     -0.56439430344647
  C   2.92999346480886      0.27042233335859     -0.13338681286465
  C   3.76364133169682      1.33298339477666     -0.03684201689476
  C   3.55777315751003      2.80081063031153     -0.33586983335416
  C   4.97165184371929      3.29196815807876     -0.76294801379038
  C   5.93615242866703      2.43400639246671      0.10143287540080
  C   6.18866709479363      3.09424785538698      1.39082807579153
  N   6.38534770567332      3.63994326659548      2.37901254247141
  C   7.28627031546535      1.82672714767034     -0.42925870195296
  N   7.23505300670216      0.42365771423751      0.05506483443670
  C   5.89383160761820      0.07923904049477      0.16789141126676
  S   5.18734569371139     -1.47878611997179      0.10127191823107
  C   3.36626051085073     -1.11380731534764      0.02224418442088
  O   2.67935615083311     -2.09097420270863      0.03702428838504
  C   5.12942694540112      1.17886791513455      0.24220127427959
  C   7.35823801871456      1.86763067931558     -1.89798624898499
  N   7.40768392428544      1.88098868974806     -3.04221885861276
  H   3.22961100502631      3.31408802582803      0.57297220899302
  H   2.80311050435148      2.96684659177469     -1.10209673070299
  H   5.10861243942300      4.36114069370994     -0.61835460840889
  H   5.13774618141985      3.05165292554043     -1.81353433894268
  H   8.15311076885610      2.33973091083375     -0.01746783955881
  H   7.85912451254190     -0.23201289622500     -0.39458530616232
