26
Coordinates from ORCA-job 4171optt
  Br  1.15495372709580      0.06998043467326     -0.19277110120865
  C   3.04541012870192     -0.04847457024268     -0.06899354135866
  C   3.68588496499241     -1.27801822267569     -0.11644947458070
  C   2.95586728867340     -2.58973295328257     -0.29775259512826
  C   3.64689246756674     -3.79957400341146      0.34630892060465
  C   5.10235700345328     -3.72552504095429      0.06183736640536
  C   5.74857832225825     -2.56455870239948     -0.14683866682015
  N   7.12046416134639     -2.84397317430997     -0.19225333666877
  C   7.31905876687642     -4.21994349310498     -0.11055122838986
  N   8.35856802804764     -4.94343828534837     -0.22085559598298
  N   6.04620815212554     -4.72627091929050      0.12945210567288
  C   5.09997719630343     -1.27740372307362     -0.08366766722622
  C   5.80950517714718     -0.08974803383013      0.02674251453018
  C   5.12488267583701      1.12060559538827      0.09255429615844
  C   3.73834566458975      1.15107579040323      0.04152500665678
  C   5.85869827836799      2.34848099990013      0.21425283331783
  N   6.45159392417807      3.32591050034537      0.30912569657911
  H   2.88041294233096     -2.76804574536198     -1.37654957307243
  H   1.93904444800490     -2.50481578226655      0.07799589845893
  H   3.20887124500706     -4.71722230668658     -0.04962668148179
  H   3.48507912456547     -3.81061588030555      1.42971727821383
  H   7.80720781757168     -2.25155791016499     -0.62625562496940
  H   9.19454611092078     -4.39256406591159     -0.37939123604749
  H   5.88350103424536     -5.71709660533041      0.17660573672398
  H   6.89000324133328     -0.09507184429161      0.07937725600330
  H   3.20708810845926      2.09059794153275      0.08346141361008
