22
Coordinates from ORCA-job 4179optt
  Br  0.83135155349268      0.69404267579449     -0.18895930974402
  C   2.69709713318728      0.56319331260573     -0.06592644847679
  C   3.54521139002212      1.62113238283646     -0.06162936737812
  C   4.97528892739334      1.36313071438108      0.02390182994960
  C   5.67274648480983      2.62671882491994     -0.01321974725321
  C   4.75878531848424      3.62342590031332     -0.07658760897287
  C   5.11053552650514      5.02178289922336     -0.22539020980376
  N   4.39623588813109      6.07026689237750     -0.14236780948330
  C   3.04584518144680      6.14639191809605      0.20969935328293
  O   2.61208292979846      7.12230758905480      0.75465079934731
  N   2.12365900193254      5.14274141303752     -0.16365851880104
  C   2.25587307158643      3.78586242342981     -0.18975439741500
  C   3.39920948690983      3.07334528250119     -0.11174254902912
  C   5.41980656252420      0.09876189758784      0.10417899165948
  O   4.57764293874776     -0.93452213347803      0.10973322180348
  C   3.19503612421746     -0.80593051982893      0.02782650234753
  O   2.54720974474205     -1.80807730783960      0.04179107669062
  H   6.74604452157533      2.75012030820482     -0.00989796213278
  H   6.15972306607516      5.19560669867852     -0.46883704780209
  H   1.18016882739349      5.48501930085181     -0.04348678943404
  H   1.31045367898808      3.26975818662586     -0.26414401892368
  H   6.45599264203660     -0.20307865937359      0.16982000956889
