28
Coordinates from ORCA-job 4180optt
  Br  1.47800968567292      0.51545265704225      0.71695081917955
  C   3.27213704753409      0.09749351009105      0.35060108427262
  C   3.78095111668175     -1.13656200236729      0.27978254372100
  C   3.17419901290192     -2.51869419189428      0.37564144992280
  C   1.90671636166894     -2.74883733253762     -0.45944746277361
  C   1.50740989309822     -4.19002321415014     -0.49176860657451
  C   1.49057088577704     -5.04201579772008     -1.55210123609924
  N   1.11267141749277     -6.33367921084633     -1.29471863539718
  C   0.84416637619509     -6.48099368721701     -0.04013063770066
  S   1.02834289455145     -5.05936389568235      0.91329571416882
  C   4.33529024819525     -3.42150867246327     -0.09845924429493
  C   5.62423528882525     -2.66726570701177      0.24501031223397
  C   5.22074953481911     -1.22339649021846      0.13170700830742
  C   5.97900086879512     -0.13251915026504     -0.03904246468792
  C   5.36400547724199      1.18514215467292     -0.06662943766285
  N   5.87814299886834      2.31561183135752     -0.28098998471589
  O   3.99903522675231      1.21047463650691      0.20946809837815
  H   2.94508115058849     -2.73912864023542      1.42515729184849
  H   2.09768047709145     -2.42651868460587     -1.48661894509017
  H   1.08645588961632     -2.14094554104385     -0.07980259414886
  H   1.75121389513624     -4.75659889296230     -2.56196858377692
  H   0.51949603760110     -7.41004407784756      0.40613265630635
  H   4.25862800137008     -3.53783498292173     -1.18299901453878
  H   4.28743413773550     -4.41692469136449      0.33926663271699
  H   6.46928492560804     -2.92691515831628     -0.39064633720274
  H   5.91716452491478     -2.86180728326011      1.28118784782298
  H   7.05316276529664     -0.18185784277634     -0.15645855426874
  H   6.87276385996976      2.22126035803698     -0.46241971994616
