23
Coordinates from ORCA-job 4181optt
  Br  1.07590141438649     -0.15879079489726      0.31332576154106
  C   2.94090364333033     -0.13043403649359      0.02863100406969
  C   3.58987358942230     -1.17839485160599     -0.53026165864495
  C   2.87014009195197     -2.38656574115377     -1.06450001898613
  C   2.92102486942322     -3.57883904329076     -0.10230468074396
  C   4.30633948849939     -4.13479012602388     -0.02679133887725
  C   5.46014098297445     -3.54053008446811     -0.48537865621711
  N   6.46695527351829     -4.41779401725895     -0.27467541613085
  N   6.04532002459352     -5.56463796276934      0.28381956008288
  C   4.75003516249398     -5.39419783945354      0.44084737549298
  N   5.70022066384646     -2.30109195225991     -1.08857097966274
  C   5.04802485074480     -1.13719969335116     -0.65702149224312
  N   5.79890809586405     -0.11593055989708     -0.47026002875215
  S   5.25394922002478      1.34338202116594      0.03931361013790
  C   3.55207132183492      1.14889163683435      0.44313411851214
  O   2.96540817547757      2.05702305169087      0.97278564851479
  H   3.34154347221682     -2.67349431408214     -2.00680001994462
  H   1.83818448495778     -2.12116472060873     -1.27246932153460
  H   2.23581774667386     -4.34824551397506     -0.46315242650528
  H   2.55409179997383     -3.26666625721498      0.87933362991729
  H   7.44300643974896     -4.30206606416377     -0.48786027601192
  H   4.15507214487133     -6.18178757130629      0.87701410581985
  H   6.67806704317084     -2.10567556541683     -1.25815849983387
