26
Coordinates from ORCA-job 4184optt
  Br  1.07364974643684     -0.03718571757606     -0.50854581703165
  C   2.92758230251987     -0.18735582484354     -0.24116046271177
  C   3.55839552272713     -1.36550422863565     -0.14285030202155
  C   3.13885771020222     -2.80483098156981     -0.14244177928058
  C   2.44818762040754     -3.17838995548938      1.18435404683583
  C   2.05593499023203     -4.60927089928085      1.24266598147406
  C   2.36258979695731     -5.63825362585938      2.06501971640781
  N   1.69473678858063     -6.74055451305031      1.58700938141286
  N   1.04012267481390     -6.44265159101452      0.57003819442481
  O   1.23741548817978     -5.08485673497568      0.30458755070781
  C   4.50183175997934     -3.52149256501397     -0.31007348474729
  N   5.47134895303088     -2.53751194627366      0.16608793297819
  C   4.98479592824471     -1.27225277643449      0.07081760537342
  N   5.69287993447348     -0.19490900421065      0.16242009173244
  C   5.02642139297025      1.01337298251218      0.06380118529149
  N   5.53829289599327      2.17231449363324      0.13948534282904
  N   3.62579006748644      0.96616269486156     -0.15142293750747
  H   2.47005623880620     -3.04754685415400     -0.96839471504716
  H   1.55999788519888     -2.55429410840153      1.30548174624893
  H   3.12035774105951     -2.96623088339110      2.01767300767603
  H   2.98444538535421     -5.67443957743541      2.94078986517601
  H   4.67850997546469     -3.76956404490391     -1.35963787896869
  H   4.55339716374182     -4.43900996111632      0.27631404752228
  H   6.46541363243804     -2.69099438317543      0.10825385079964
  H   6.53851105703411      2.08626585011126      0.29084980552444
  H   3.16947734766688      1.86198415568744     -0.23112197509896
