27
Coordinates from ORCA-job 4185optt
  Br  1.38349867889295     -0.30257697670924      1.02665030906750
  C   3.20215987153658     -0.27408443027303      0.44103895301864
  C   3.74009433097368      0.87067353095758     -0.13141271582479
  C   5.04901242883647      0.79022035873511     -0.59427760541895
  C   5.46535314376914      2.07335279821396     -1.25961623421474
  C   4.37624872693693      3.06017020976948     -0.81461432798111
  C   4.73824659538653      3.78405455983118      0.47664357780579
  N   5.77003686796329      4.43145690856047      0.77849714039653
  O   3.74039663711537      3.64866614314285      1.37883746592797
  C   2.61984181175451      2.97868031825863      0.82464464783370
  C   3.13167025536130      2.22978663692017     -0.41442524553238
  C   2.05369758298469      2.15573460722538     -1.50861937772936
  C   2.59852907374349      1.59685411694813     -2.74450060180198
  N   3.08152813801926      1.17353175496720     -3.69316776929316
  C   5.76812607927389     -0.38267397021729     -0.44108543970003
  C   5.12797172448369     -1.44453217823254      0.17760963267940
  N   3.86614992937796     -1.39197336075228      0.60511898424979
  H   5.46027448247334      1.94114233967329     -2.34314581720649
  H   6.46364236322084      2.39520642163087     -0.96140429896571
  H   4.14693420908351      3.80322430663521     -1.58090938075951
  H   6.43511508159317      4.43331053289270      0.01018054204170
  H   1.86463726900786      3.71777012505770      0.54056144028141
  H   2.20428740918830      2.32446240893939      1.58602270000056
  H   1.67045875352015      3.15527850759349     -1.72307732710003
  H   1.21711890121434      1.53762988661387     -1.17816855044982
  H   6.78801140665609     -0.47759397830565     -0.78834590519638
  H   5.63895824763262     -2.38677157807666      0.33496520387144
