25
Coordinates from ORCA-job 4188optt
  Br  0.79337328138538     -0.16052999018394      0.28966287481789
  C   2.66761444384592     -0.14916619425543      0.07224865001969
  C   3.43235871759633     -1.24690563007451      0.29140170544159
  C   2.86026052218516     -2.60426499399790      0.59824119528942
  C   3.09019833278101     -3.53877845576748     -0.61041797986975
  C   4.20969752397996     -4.55574778518475     -0.43625149542354
  C   4.84880345597596     -4.94556211707232     -1.78306989388523
  O   5.94600123490122     -4.03301892491348     -1.55180036401184
  C   5.62232688310175     -4.01375353706256     -0.17661946214302
  S   5.97435659706018     -2.47536603593652      0.69012234760165
  O   7.30601788367542     -2.09847342837024      0.35132962620850
  O   5.59360541613687     -2.71366489010894      2.05816961939367
  C   4.87215715833439     -1.15408734730486      0.08735327487363
  N   5.53622078875897     -0.17131123548551     -0.37257836776716
  S   4.88366204275765      1.26344073654460     -0.77550142259501
  C   3.15956718263600      1.16687048637706     -0.37938832687847
  O   2.48606018287748      2.15001730316574     -0.52641975416882
  H   1.80067801795311     -2.50841266972647      0.80496365150283
  H   3.33295502294662     -3.00758664235186      1.49405524967713
  H   3.29793555686513     -2.93559333513764     -1.49834258872211
  H   2.17378839117710     -4.08881238412040     -0.82751232801012
  H   3.91482779948650     -5.36528867723816      0.22758938052283
  H   4.29069073748914     -4.69089973759707     -2.68348461398866
  H   5.20958739061846     -5.97416961770337     -1.83240630227603
  H   6.24725543547421     -4.70293489649392      0.40765532439094
