29
Coordinates from ORCA-job 4193optt
  Br  0.92099480543789     -0.21442620441222     -0.08405897972601
  C   2.79525210551636     -0.12869910930428      0.03752174949307
  C   3.53983544691961     -1.20807167366489      0.37136571564779
  C   2.97120034703084     -2.53087431966232      0.79469793736982
  C   3.06706524535684     -3.60630105944685     -0.28562181997440
  C   4.41556298823543     -4.31669730118496     -0.27880616667632
  C   4.62831633789971     -5.09289851280731     -1.57464523655089
  O   5.07735734686497     -4.12992886167458     -2.51959258351622
  C   5.65163982544959     -3.01936236873527     -1.84747248900102
  C   5.64297490388470     -3.39176154004352     -0.35478401459324
  C   5.82950288707369     -2.19309768747999      0.55331151144919
  O   6.78769554885423     -2.07395842750403      1.25227279242706
  N   4.91707057388708     -1.08096237808627      0.41436963074850
  N   5.55388604426939      0.10062763545705      0.29917703340389
  C   4.86023137621045      1.13725335644914      0.02009522897128
  C   3.41173743478830      1.16712204088920     -0.21044483752321
  N   2.74446114115334      2.19572411932422     -0.55977152534856
  H   1.93478455457548     -2.36701548043611      1.07418031929596
  H   3.49837277523057     -2.86046614570677      1.69597012020791
  H   2.87527751086913     -3.16162109994809     -1.26606372663157
  H   2.28769347630954     -4.35294701176037     -0.12465396954854
  H   4.48276762639931     -4.96337822988391      0.59801817060139
  H   5.38072063579293     -5.87850131052479     -1.45041743505008
  H   3.70803027018312     -5.53962558297882     -1.95281314947037
  H   5.04982532880104     -2.12645260634430     -2.04416182041545
  H   6.66312772344254     -2.84610698462696     -2.21642917313122
  H   6.51911579053392     -4.00315957133742     -0.13821592488098
  H   5.41721992611417      2.06438940510995     -0.06938103791499
  H   3.35428002291573      3.00619691032451     -0.65964631966276
