28
Coordinates from ORCA-job 4194optt
  Br  1.06048968679291      0.22919278653033      0.24617532874145
  C   2.94921537417691      0.05851000142877      0.07980133063324
  C   3.50826389213418     -1.12315097785287     -0.39828642339786
  C   2.67220520218669     -2.27917417032904     -0.92347330713362
  C   2.19192782786780     -3.34578183470113      0.08593553044996
  C   3.25208309487289     -4.30448633682349      0.68770852899135
  C   3.93093533293376     -5.28886618691589     -0.31453880560269
  O   5.13162822686739     -4.64379972648136     -0.76993266594225
  C   5.14053412410267     -3.40107216728346     -0.22320902299578
  C   4.48069771214891     -3.50652838611272      1.12895886008813
  N   5.47656308894888     -2.39099057796108     -0.88764345338190
  C   4.92152531579183     -1.18174762790485     -0.43524172834699
  C   5.70357532640262     -0.09136640796810     -0.08598210209067
  C   5.09782354371562      1.07057381304001      0.36536384740520
  C   3.71813538582159      1.14849745398513      0.46437188569728
  C   2.62549650259723     -5.05116994111013      1.77822626980375
  N   2.11866554525614     -5.63232738956586      2.62648534313662
  H   3.21301587715990     -2.75565557033985     -1.74317271782519
  H   1.76517229416133     -1.85766714494570     -1.35502534438908
  H   1.42401379767289     -3.95309023163190     -0.39813997790225
  H   1.70661001367985     -2.83649125478845      0.92185378309250
  H   3.29775590791057     -5.48949605304976     -1.17929898855264
  H   4.19778605734502     -6.22511479018327      0.17345774006510
  H   4.24666728651883     -2.55910236863720      1.60128930072210
  H   5.12411695127923     -4.10289484073581      1.77805767965678
  H   6.77948507130626     -0.17492568836277     -0.15676289620331
  H   5.70183993502233      1.92158837342680      0.65137205331879
  H   3.23677162532567      2.04553724527368      0.82664995196199
