27
Coordinates from ORCA-job 4195optt
  Br  1.88333755371807     -0.18484684460522     -2.60978849338700
  C   3.13631892481201      0.09392483557131     -1.20488270712184
  C   3.51629562837469     -0.93689648709532     -0.34267844504227
  C   2.87575508111340     -2.31815038441206     -0.48485439355014
  C   2.38759502162905     -3.06259492796275      0.78233198946891
  C   3.39454121082901     -3.42152041396800      1.88706669547577
  C   4.69781042719504     -3.99837152381782      1.35449797577391
  O   5.40931284925946     -2.86424991698381      0.85052570014258
  C   5.03188214214866     -1.69588873188050      1.54834771332954
  C   3.90501413393556     -2.12889337836394      2.48444395516535
  O   3.51972577859798     -1.54449749835731      3.45294295505805
  C   4.51012761099640     -0.63801570700273      0.60408160193602
  C   5.03187087269524      0.64274269959011      0.70640223004442
  C   4.60325327526657      1.65393861596228     -0.13765194607394
  C   3.65955086488091      1.37661702804198     -1.10745312126941
  C   3.67088103708564     -3.18366840681980     -1.36915372500818
  N   4.22694247405540     -3.88141913728943     -2.08807231957317
  H   1.95604273596875     -2.15818863708930     -1.04804268525781
  H   1.92482827543164     -3.98728880232777      0.43193951419551
  H   1.59635954292537     -2.45268395382667      1.22311058533717
  H   2.90793806504878     -4.03664758370091      2.64122572550340
  H   4.57602121832886     -4.70164251722163      0.53246459677004
  H   5.26859185666918     -4.47768140780866      2.15556932779885
  H   5.86791762990089     -1.29882539024788      2.12811942988049
  H   5.79252642106731      0.84063831316073      1.45071123926513
  H   5.01496545668015      2.65066101584274     -0.05286543676325
  H   3.32659391138593      2.14144914261239     -1.79433796209809
