26
Coordinates from ORCA-job 4199optt
  Br  0.79487019650728     -0.14941636909846     -0.05009267604376
  C   2.67260836828784     -0.09093017922548     -0.09746226673241
  C   3.44768310358485     -1.18008697570088     -0.02034169883546
  C   4.88712412976565     -1.08208883205436      0.11298259143332
  C   5.43821152905356     -2.45887619925475      0.39222932303272
  C   4.36994197597369     -3.39522537547509     -0.17141267254414
  C   4.55924411705967     -3.55443739431019     -1.66772266769689
  O   3.44578465731791     -4.19600307893365     -2.27687977395711
  C   2.24738292586240     -3.74658349829017     -1.86256539700870
  N   1.97220275274537     -3.02104081081615     -0.87126047587638
  C   3.02700540559212     -2.65221644772491      0.06794101916359
  C   2.54690044744150     -2.92066627578799      1.43313924239199
  C   2.19831850399523     -3.12904549630786      2.55918674133295
  C   5.60341633776937      0.04846737792377      0.02796633692973
  C   5.03625398633421      1.36611530853460     -0.21718903250027
  N   5.65667516389361      2.45492680824378     -0.41648020712179
  S   3.26332608698903      1.53475982639665     -0.19836175150380
  H   5.52292286904016     -2.59561453473138      1.47300102132185
  H   6.42487816868149     -2.61536304663664     -0.04674320047408
  H   4.35409883024037     -4.37134092422458      0.31140722186140
  H   5.42915348583218     -4.16809551419855     -1.89336716903463
  H   4.68930896215403     -2.57267597022481     -2.13697111452048
  H   1.45602022808484     -4.09878164724839     -2.51717712286458
  H   1.87069129562678     -3.30910166590607      3.55524408191594
  H   6.68299177834868      0.01725581428576      0.13529505231735
  H   6.66498469381811      2.31306510076581     -0.38236540498638
