28
Coordinates from ORCA-job 4205optt
  Br  1.26721054885365     -0.57419771700141     -0.16868463970601
  C   3.13730236798203     -0.32879841415136     -0.00350062068410
  C   3.70427450108450      0.93536472279544      0.06081904720283
  C   5.09015813414498      0.95439574320623      0.15842121667195
  C   5.62351330174828      2.35125008993485      0.21718282386103
  C   4.39929055886432      3.24892401162889     -0.05197608448157
  C   4.41225567699945      4.45470033781769      0.87731138825243
  O   3.25340130168601      5.25067919208643      0.79065549594299
  C   2.24213600238237      4.89689999303664      1.68376186350116
  O   1.54537897793000      3.74244376133176      1.33046892604763
  C   2.29063878151056      2.55295093780427      1.34466477996195
  C   3.11318557564476      2.33331339304738      0.05056845886222
  C   2.25337561001318      2.54382155485665     -1.11639687003671
  C   1.58120426984921      2.72791637786456     -2.08904596962741
  N   5.84754579257948     -0.13265528000317      0.20131600918971
  C   5.18207893884667     -1.27920517026782      0.13787730144105
  N   3.86483599893252     -1.42695436973259      0.03483001155807
  H   6.42474996408068      2.49194818702143     -0.50777512179910
  H   6.05592969467341      2.52924522900921      1.20702831124662
  H   4.43638161375524      3.61374462370822     -1.07731890268030
  H   5.26086781732100      5.08793386959009      0.60971394533996
  H   4.56632618920485      4.13142300272773      1.91516722233576
  H   1.51674211881838      5.70571042324574      1.67379720349322
  H   2.67279124500210      4.77304357822657      2.68929175903363
  H   1.57146928633989      1.74171483702250      1.44086372231819
  H   2.96469398403067      2.51911820160826      2.21105888873045
  H   0.97085876748227      2.88882020147085     -2.94506002406063
  H   5.76640298023951     -2.19155131788507      0.16695985808497
