24
Coordinates from ORCA-job 4208optt
  Br  1.26450639382149     -0.08624303971516      0.08083673779325
  C   3.14405918992167     -0.06151818030663      0.19662159390447
  C   3.85052940648761      1.09127109290956      0.25468416813623
  C   3.47098598706721      2.56361433490798      0.09317513867078
  C   4.77546571213868      3.20493068960326     -0.47776329010462
  C   5.90854403234394      2.41410244111090      0.20377266946788
  C   7.22135827141857      1.96657032433039     -0.49586212593597
  O   7.33530916019310      0.52350851031312     -0.26346854135755
  C   6.09412175313381      0.08792242103726      0.05236664359863
  S   5.58436181143798     -1.54240010203459     -0.06998129565295
  C   3.76425819543394     -1.39187449016377      0.18297026333554
  O   3.18892618163215     -2.43931894888873      0.24145076681252
  C   5.25440848403471      1.08367385976985      0.34070641185959
  C   7.23549143748986      2.20464166149276     -1.99613980412226
  O   7.25989410958857      3.30822169932006     -2.45421529034583
  C   2.27152034088369      2.81553194381235     -0.81346648386669
  O   2.37566732640054      2.88177172275067     -2.00396071718916
  H   3.24359855326027      2.96473017243108      1.08715309280154
  H   4.81458361875871      4.27688590568608     -0.29429854458044
  H   4.77339925244314      3.04542591008309     -1.55597057246179
  H   6.14427757164415      2.85650998514311      1.17530343597702
  H   8.10837933915038      2.42713217616128     -0.06547671536606
  H   7.22592404588233      1.29606166320731     -2.62700727308163
  H   1.29742982543342      2.95784824703876     -0.31843026829251
