24
Coordinates from ORCA-job 4210optt
  Br  0.96223708006352     -0.21163177587909     -0.45793653806630
  C   2.83331267522516     -0.23740361065818     -0.28116121018000
  C   3.46796662833429     -1.29138030440800      0.25994901530765
  C   2.78832820486462     -2.48637649135447      0.85968589097327
  C   2.72964680294555     -3.67126316395421     -0.10207327848726
  C   4.09956077971503     -4.22665232149031     -0.31855443670999
  C   4.48533544955532     -5.41228466769547     -0.84347340967367
  O   5.81420738725465     -5.53700999120545     -0.79029607735246
  N   6.35295390244028     -4.44112840967446     -0.21252780323316
  C   5.34733631913184     -3.65440925352135      0.07406180203905
  C   5.71812733106031     -2.32695816356389      0.65710050373413
  O   6.75112195857147     -2.14837118384711      1.22946665909620
  N   4.86532804423777     -1.22640784064044      0.35956682143417
  C   5.49618437166762     -0.02188353472402      0.08444656360945
  N   4.93142261407307      1.00224900124427     -0.40475432973155
  C   3.55909343191870      0.96441461419972     -0.72269260644680
  N   2.97131787984765      1.91083498736075     -1.32488449011226
  H   1.78350923891537     -2.19490860481458      1.15083729378003
  H   3.32314107908153     -2.77627991355013      1.76871308097663
  H   2.28497676456959     -3.34540631153096     -1.04496547115535
  H   2.07948378384060     -4.44345058428021      0.31103616580012
  H   3.94666957459172     -6.24141173056217     -1.27160788719078
  H   6.55777708372927     -0.02335090729439      0.30182760256971
  H   3.64496161436501      2.65147016184419     -1.51676386098081
