27
Coordinates from ORCA-job 4213optt
  Br  0.92121352495039     -0.12343417071087      0.79386129990044
  C   2.76575649240339      0.10920336760335      0.41899630818280
  C   3.37233469069171      1.36145076422019      0.39810651260586
  C   4.73133503438031      1.43301090512458      0.05844196244632
  C   5.21922534369588      2.85693604612726      0.09513602132356
  C   3.91777777308464      3.67639322253969      0.09961351934882
  C   4.00388679457900      4.99151870212115      0.85233629474662
  S   2.40427877349724      5.76485890074201      0.87079419109761
  O   2.44504763072598      6.92877980708459      1.71278273177973
  O   1.96013768669722      5.88097577597941     -0.49291271106150
  C   1.42117332141807      4.51821209873095      1.68586628127463
  C   1.80122038414457      3.10196479475121      1.36129166957831
  C   2.87720507676169      2.72640478772834      0.67210946660599
  C   5.47056898778725      0.30183250826111     -0.22953052915611
  C   4.84554910887895     -0.93747216058636     -0.18838888612279
  C   3.49864221947244     -1.03445345007613      0.13077211179678
  H   5.86987232713668      3.10230130004827     -0.74393893612458
  H   5.78489725746697      3.03118864813059      1.01582051245341
  H   3.63424106075398      3.89167877424697     -0.93527668556014
  H   4.66946857166445      5.71178113366976      0.37373064116749
  H   4.30544495861576      4.85496704296526      1.89264563256054
  H   0.39632155650868      4.73689841254604      1.37575774306974
  H   1.49712081718288      4.71623210835531      2.75688318945378
  H   1.12914685567670      2.35692136157838      1.76321768847963
  H   6.51925583590986      0.38130897691675     -0.48728352177916
  H   5.40246254192270     -1.83714530027215     -0.41441548852652
  H   3.00741537399256     -1.99731435782568      0.15058298045870
