27
Coordinates from ORCA-job 4214optt
  Br  1.13784707683382      0.23414669492970     -0.20219738868872
  C   3.00055686474031      0.10027016274236     -0.02343966067779
  C   3.72871302754990      1.21750387622725      0.14531613303726
  C   3.34750759628439      2.66683729192636      0.23951074935349
  C   4.67985852826406      3.40754057382350      0.01766965083615
  C   5.74471204690141      2.41497044515374      0.49207809115797
  N   5.09182721237565      1.12990366068469      0.28468665744090
  C   5.76442547774543     -0.03880424919863      0.23908908049072
  C   7.24216232060946      0.13545720168985      0.40835676813286
  O   7.72226724958838      1.26152354584717     -0.32823274619157
  C   7.05148138128820      2.44088229477779     -0.26438118694414
  N   7.46904245144024      3.49420541784948     -0.80169721397325
  C   5.09550246221761     -1.20824705483298      0.06086106358407
  C   5.80429465096065     -2.44035680351551      0.00342355782037
  C   6.36316241109984     -3.50197854417323     -0.04865103966621
  C   3.61744602726975     -1.23292804742590     -0.07499143292876
  N   2.90498788470538     -2.27697510207577     -0.23536949624019
  H   2.93175929234189      2.86464176564204      1.23093411518353
  H   2.58459608446585      2.92786676319449     -0.49045573849181
  H   4.74171929632270      4.35312304707257      0.54832917556188
  H   4.84172442997854      3.60448675567532     -1.04092934117914
  H   5.96586904175753      2.54690360981042      1.55938242245277
  H   7.77716772121983     -0.73118695211568      0.03178156337686
  H   7.48456431620242      0.26592904179854      1.46854452916758
  H   8.37061957622132      3.34556105828111     -1.25375127803873
  H   6.86232947871977     -4.44038014048765     -0.09728519128785
  H   3.48685609289562     -3.11289631330103     -0.25458184328826
