22
Coordinates from ORCA-job 4217optt
  Br  0.69437741673161     -1.40155326842756      2.00880593972214
  C   2.27401694155886     -0.74355474092326      1.26257061309454
  C   3.26279309916771     -0.10284631658001      1.91892437671988
  C   3.21769637857909      0.13738080148946      3.35953529813576
  C   4.13670606452027      0.86385248843828      3.99244310210715
  C   5.22153395587884      1.55363311527533      3.26968034452866
  N   4.80590488016922      2.47900210936560      2.22062900991828
  C   5.43502200952214      1.21672909446440      1.82133568898014
  C   6.78549026714061      1.25735111633396      1.31768326726594
  C   7.91424880400675      1.34360834832646      0.92977276841613
  C   4.49338755291569      0.24571059945445      1.19141359023962
  N   4.87177973917219     -0.29368152080628      0.09109024534584
  N   4.02057014830067     -1.16091977629360     -0.50463038560637
  S   2.38746649528623     -0.87483126472620     -0.48179711384692
  O   2.08369157253596      0.40241559332687     -1.03586813441620
  O   1.75468301533504     -2.04631780031610     -0.98659849493411
  H   2.40467063466232     -0.31824115371076      3.90716762939468
  H   4.08866555186866      0.98043113182924      5.06778367523740
  H   6.11256335881349      1.80135156875842      3.83156820723467
  H   5.47500430312692      3.23552980035857      2.11469088885650
  H   8.91533780680196      1.40568624491207      0.57499408044885
  H   4.37139000390571     -1.56373617054935     -1.36519459684260
