29
Coordinates from ORCA-job 4218optt
  Br  1.89664541898407     -0.78751889975937      0.72731217010165
  C   3.31111818884566      0.17327599526796     -0.03244396522068
  C   3.48645525908956      1.49890375235429      0.07036660023658
  C   2.46789028564011      2.36253767269106      0.80243979716371
  C   2.84197562786126      3.83533672029046      1.04157943101839
  C   3.66448406974343      4.33156136948206     -0.12054517025655
  N   4.09169305457676      5.72663084087936     -0.11490831864272
  C   5.26297454457289      5.77171588063964     -0.97812361684731
  C   6.60507186081855      5.45636784919977     -0.39203194697594
  C   5.84063809192508      4.37808608159955     -1.10052402073939
  C   4.96037798314109      3.50853333930515     -0.22323442229690
  C   4.61691407688405      2.12018793503219     -0.65254018043102
  N   5.22813110404626      1.59187605595210     -1.64744843597263
  N   4.84484350657792      0.33997674133507     -2.03031387647028
  S   4.49477569650575     -0.80713302043930     -0.89006917211917
  O   3.88598954722653     -1.90148976902696     -1.57224269412394
  O   5.60812307180283     -1.03845756120218     -0.02833795176002
  H   2.21434584792545      1.87873578507081      1.74594228695667
  H   1.55547178195921      2.32375669428918      0.19827249984434
  H   3.42504414350919      3.93631094134496      1.96170379244921
  H   1.92931241059496      4.41911987332513      1.16682609058553
  H   3.10362630501671      4.17146338420977     -1.05063181844743
  H   4.32038685998547      6.03084872660322      0.82580394236785
  H   5.20871925938952      6.42559184865570     -1.83723746300549
  H   6.68339224855550      5.39560051473775      0.68710139519598
  H   7.47471800689302      5.86587510041533     -0.88716004886234
  H   6.20254817110920      3.98870894226692     -2.03954926212001
  H   5.38537986993606      3.43898658477570      0.78705433745404
  H   5.37595370688385     -0.02038937929538     -2.81405997908211
