26
Coordinates from ORCA-job 4223optt
  Br  1.08051555538635      1.10865562104175     -0.17310831095347
  C   2.71119981398923      0.12219131722739     -0.00386990757779
  C   2.71823069855889     -1.23114338893984      0.35282468865397
  C   1.35801847288185     -1.73290223346921      0.92604144834495
  C   0.30025841853118     -2.39701680806097     -0.04583614542371
  C   1.01345362074771     -3.66887400312443     -0.36888188646947
  N   2.16643625142997     -3.49651061848727     -0.86180107480266
  C   2.96065537300988     -4.10007751102153      0.21546113589863
  C   4.30642862750240     -3.44391076665672      0.20488598078820
  C   4.00235801125134     -1.90762141305393      0.23290403924325
  C   5.12069350024041     -1.11323023650072     -0.01575239860087
  Br  6.86956324118538     -1.87173729895363     -0.07170284074380
  C   5.07064493534513      0.25093318373618     -0.25996817781983
  C   3.84441114208638      0.86512850734775     -0.30122105023861
  C   2.18332700055526     -5.34070036515544      0.54526925639952
  O   2.37871123169530     -6.42785324140429      0.95262925016593
  O   0.86626789480252     -4.78860216210237      0.43283951366839
  H   1.52517956721133     -2.40378124752244      1.76870943438501
  H   0.87482314672053     -0.87251065753365      1.37958112693122
  H   0.18649837918571     -1.78522745517512     -0.93749739767966
  H   -0.65383649025635     -2.52267361912464      0.46160642972838
  H   2.59574043535739     -3.62490018276324      1.14458497351595
  H   4.87213503928556     -3.65042016178854     -0.70210244789659
  H   4.91615994910632     -3.72712004111155      1.06310949924547
  H   5.97811622812109      0.80508695539952     -0.45096337937123
  H   3.75800995606921      1.91381782719699     -0.54574175939119
