29
Coordinates from ORCA-job 4225optt
  Br  1.42034565209398      0.21805330662961     -0.86818738330796
  C   3.20451976323841      0.05024164815409     -0.27543077566553
  C   3.78178021977300     -1.15435316953747     -0.15550104685381
  C   3.17783997032016     -2.51855866342425     -0.39410514766510
  C   4.14748577581045     -3.44647841726426      0.35210457770379
  C   5.51920081687533     -2.76803772181992      0.21371342232595
  N   6.53217188808759     -3.16275893730385      1.18356612706151
  C   7.72077525194773     -3.69845835389921      0.52086405616023
  C   7.67404989211519     -3.02977620191455     -0.84619949228951
  C   6.18009215778115     -3.06924424719909     -1.17295735019653
  C   5.79894702145598     -2.12513732970914     -2.28593511789376
  O   5.10544724461837     -2.43459201153844     -3.21475116752645
  C   5.14043864121310     -1.29229845945011      0.29862296788719
  C   5.96294697316123     -0.31147152784588      0.71018205120562
  C   5.61650909247016      1.09566158655527      0.70500825934270
  O   6.32987646615157      1.99993072002203      1.05106828706196
  S   3.97034296080207      1.55087144505370      0.09844132202023
  H   3.16084948334354     -2.74477428792691     -1.46400097036326
  H   2.15464369117361     -2.58192211988632     -0.02728619408204
  H   4.15384299559748     -4.46772012281482     -0.02688064655104
  H   3.88137769567495     -3.47077364158337      1.41261451449087
  H   6.16382926805037     -3.75675225612078      1.91208330737277
  H   7.68459015822213     -4.78780130432250      0.40448518079953
  H   8.62241968889469     -3.44488813297468      1.07878259770505
  H   8.28214294614924     -3.53626239666560     -1.59375682251621
  H   8.01046406582834     -1.99225843785616     -0.77000359875874
  H   5.88236004873370     -4.07398685154456     -1.48062922016515
  H   6.21479279569176     -1.10170306024822     -2.20714684160459
  H   6.95191737472450     -0.54775105356453      1.08523510430230
