24
Coordinates from ORCA-job 4227optt
  Br  0.94134394734166      0.08872923293796     -0.15552971014962
  C   2.83175797596256     -0.00770403601392     -0.29647454236941
  C   3.58664442595021      1.09444690125464     -0.53102002028966
  C   2.84351427393405      2.38234614295507     -0.64005193376472
  C   3.10579569612369      3.49674669202238      0.04050035612502
  C   4.39363633519768      3.50234093755740      0.74338066950240
  N   4.78178914472440      2.70008346683040      1.63783112914335
  C   6.24822913978229      2.63832303013929      1.47274633924175
  C   6.38540471974262      3.13608934299320      0.03366912054750
  C   5.97964833115534      2.09204857498916     -1.04040353227711
  C   5.05019336523976      0.95405750137641     -0.62258785226841
  C   5.68893754880598     -0.21857269726936     -0.39130855757651
  C   5.12742390111678     -1.50268970511847     -0.03572245252674
  O   5.76340885704604     -2.49716512458237      0.20715428033141
  S   3.34852819316237     -1.62274488523479     -0.01142221926426
  O   5.36744324835017      4.14536314785099      0.01299383005476
  H   1.97167700470239      2.36648893506614     -1.28261597610523
  H   2.52236633469982      4.39720552645845     -0.09024156791004
  H   6.58566190226535      1.61369977206140      1.62120440510007
  H   6.75675937504915      3.29225604224634      2.18434329571929
  H   7.33543867482511      3.60074404339407     -0.21821718487053
  H   6.88841257410145      1.63001537959711     -1.42294015562025
  H   5.53410840446999      2.65792280709933     -1.86095932404303
  H   6.76787662625109     -0.26103102861084     -0.48632839673003
