26
Coordinates from ORCA-job 4228optt
  Br  1.14637331691733      0.36596853046580     -0.92099846548991
  C   2.99261184369296      0.22593094148649     -0.59156828528406
  C   3.63241601583941     -0.97091653062775     -0.59488710691285
  C   5.04000011062957     -1.04293678371746     -0.28284148850234
  C   5.79239764010502     -2.35078159966828     -0.10318679132306
  C   4.88917174086608     -3.25380434334825      0.67307753420455
  N   4.54542497162602     -3.14120051735062      1.88194961859920
  C   3.36484156699307     -4.01132898854160      2.02794360623907
  C   2.90167077956956     -4.16618725912308      0.57638403196137
  C   2.04516692051186     -2.96892185537937      0.06864347859279
  C   2.81197364382430     -2.19521857301655     -1.00041496960218
  O   2.78725779409560     -2.51077253873117     -2.15496715939519
  O   4.16393725744719     -4.10496826605979     -0.11177214408715
  C   5.67063222490584      0.12501461451139     -0.02655542300083
  N   5.02416539092933      1.31808648850073     -0.08110526093655
  C   3.67368951095711      1.49409394897569     -0.34221753955786
  O   3.17634622411457      2.59826918176263     -0.35193571942097
  H   6.71270903375767     -2.16014819243646      0.44454549088486
  H   6.02833344060283     -2.81878346114136     -1.05902033767000
  H   2.62186770053470     -3.54083753093301      2.66896309750131
  H   3.65608316681234     -4.96775314240770      2.46952113070257
  H   2.43890187947914     -5.12111326445728      0.34704278318606
  H   1.77671648028228     -2.30553047859752      0.89151152734445
  H   1.13193631364844     -3.32796272126657     -0.40324053931363
  H   6.71539205053731      0.16686188663655      0.24906855754493
  H   5.52498298132039      2.17594045446456      0.10306037373543
