23
Coordinates from ORCA-job 4230optt
  Br  0.99666401089206     -0.10431221867840     -0.02444945465810
  C   2.86784555963134      0.05131462796989     -0.01353804253019
  C   3.49371405755488      1.29013586067846     -0.00984406125400
  C   3.23410264844225      2.69161658758172     -0.01010488886426
  C   4.45620456373125      3.35987939319461     -0.00492021150099
  C   5.49304855107751      2.38865511990880     -0.00114726911669
  N   6.82839692581667      2.16094478501853      0.00358232298940
  C   6.99342719600108      0.83786952903669      0.00363031222166
  C   5.73178622969960      0.15913196202429     -0.00126373848791
  N   4.85864846297072      1.20267466092637     -0.00400471135200
  C   5.08521519236022     -1.06824925733206     -0.00400350909790
  C   3.67545201099815     -1.09033344184233     -0.00988914090995
  N   3.22868038231064     -2.40893204035277     -0.01194132523266
  C   4.28242522856877     -3.30603536053998     -0.00697501389659
  N   4.30872426150278     -4.56629071795469     -0.00592335211634
  C   5.54477222676433     -2.45903008521832     -0.00231298736539
  N   6.73278209544958     -2.87629445136456      0.00215369249369
  H   2.25555596635310      3.14053795848745     -0.01363149382401
  H   4.58890425599203      4.42927520033216     -0.00362458133619
  H   7.96763885734287      0.37843688441941      0.00715467354600
  H   2.25402501117602     -2.66094890857522     -0.01472044694741
  H   3.38481979838353     -4.99290547829323     -0.00928482153860
  H   6.72916650698055     -3.90114060942680      0.00205804877844
