29
Coordinates from ORCA-job 4232optt
  Br  1.89673969402005     -1.35134035522775     -1.39933729804226
  C   2.52010433794462      0.09460250134411     -0.37044767957583
  C   2.54438036799299      1.32635469426639     -0.88854742053024
  C   2.03774525868257      1.82763616051666     -2.20078971432996
  C   0.60239794186253      2.39340039707573     -2.03555936655024
  C   0.56154995289326      3.27178654254281     -0.82062974092099
  N   1.10731934790116      4.42115799606011     -0.75759804276938
  C   1.19776705181395      4.76237930955771      0.67158140369320
  C   0.21290192186345      3.80344271234000      1.37623036570042
  N   0.14415183013273      2.73705325428481      0.38301024530836
  C   2.65980228601945      4.64073683942694      1.16147933571269
  O   3.01124878878892      3.42349734716967      1.84744342416327
  C   2.99466609664773      2.25667236224530      1.20676356324935
  O   2.96644260461255      2.38256847945691     -0.12550385642810
  C   3.01164601496037      1.06436084306218      1.81968058208471
  C   2.89730501523433     -0.15933640337177      1.03651364983154
  N   3.00299387879989     -1.35559251843817      1.46577203993236
  H   2.04371127039893      1.03479494513216     -2.94363994460224
  H   2.69235705670268      2.63536403412422     -2.52922793127469
  H   -0.10245928872521      1.56672222138577     -1.93354245118869
  H   0.34209136727484      2.97471963488954     -2.91815043858645
  H   0.91401824911796      5.80491381601879      0.81550050763268
  H   -0.76047157524005      4.27904511099058      1.52116401354265
  H   0.58328480912060      3.43703898481487      2.33287808864863
  H   -0.58536274692677      2.04353391296482      0.40848844697187
  H   2.85629354209422      5.39644737189447      1.91853799085121
  H   3.32712865922640      4.79653803198419      0.31438048134507
  H   3.05080217642946      1.02181672483425      2.89801543651593
  H   3.24744409035636     -1.35931495134533      2.45453430961514
