27
Coordinates from ORCA-job 4233optt
  Br  0.96696851468187     -0.81538373571641      0.67926853676783
  C   2.44986988503858      0.15181833171676      0.04502974755846
  C   2.37414557103811      0.92920139191127     -1.03388073759190
  C   1.12645047736443      1.23722416145135     -1.82907053596003
  C   0.11934261511640      2.15810739592856     -1.06098627996655
  C   0.84165072146677      3.09106205212813     -0.14431324372648
  N   0.83572188647452      3.03528045059999      1.16904438724990
  C   1.94978984901602      3.72081472261898      1.58232876972212
  C   2.64782692656297      4.19009235664537      0.50130720247002
  N   1.87239768769807      3.84790825619107     -0.58226018173796
  N   3.97326494733781      4.59488300736553      0.24594279249866
  C   4.99834889924346      3.53407262361676      0.40489503776893
  C   4.43034944299249      2.15666045662299      0.13496044031504
  S   3.84385123843868      1.81476252358934     -1.51222194486642
  N   4.31583475686028      1.32395242158265      1.07698535207514
  C   3.69054340542863      0.07499224464485      0.85722752777456
  N   4.09770349409121     -1.00716309749919      1.35925345785636
  H   0.62002218697460      0.30665604373037     -2.08832606900812
  H   1.41822232135449      1.71573503359911     -2.76525919477774
  H   -0.53236957862555      1.55150719591520     -0.43636646057982
  H   -0.50026651358498      2.67747885106996     -1.79408667275475
  H   2.21878995872061      3.78691839803698      2.62405205233978
  H   2.18187844944268      3.96379789482663     -1.53299384079411
  H   4.24942140896752      5.43099532809021      0.74013091496947
  H   5.39510215715122      3.49176953414828      1.42105810660601
  H   5.81801657895764      3.74005253670554     -0.28857738043129
  H   4.94112271179142     -0.84019637952034      1.90885821622287
