22
Coordinates from ORCA-job 4238optt
  Br  1.18496243500005      0.21477194872880     -0.10238804979903
  C   3.03774596115753     -0.02338979200573     -0.08815827149101
  C   3.64927403365079     -1.23681744038489     -0.08433621369556
  C   2.96501990341830     -2.51085693844302     -0.08844821940725
  C   3.65823169869912     -3.66618445834389     -0.08489468789489
  C   5.09078178203926     -3.62842588136174     -0.07686279414882
  N   5.91837008114811     -4.63800330429681     -0.07223831860156
  C   7.19087991389337     -4.07439696356976     -0.06402952279995
  C   8.36864603461601     -4.95848937778360     -0.05622506174935
  O   9.50342723979725     -4.55776416903766     -0.04501808594330
  C   7.19176488401343     -2.70543014633344     -0.06352388162369
  C   5.80664896039660     -2.35621536593701     -0.07223158550060
  C   5.09215880988119     -1.20375274836718     -0.07578016970443
  O   5.75336461047557     -0.01005225396334     -0.07169181369415
  C   5.14186969345653      1.19079261733282     -0.07380136296659
  O   5.74699130860505      2.21315825163601     -0.06911984188620
  N   3.75459090418995      1.13323102645751     -0.08252398432019
  H   1.88466596447871     -2.50696507199719     -0.09427886554599
  H   3.15911282353434     -4.62592655731787     -0.08788396692262
  H   8.13243956586108     -6.03720098288555     -0.06113510140148
  H   8.05088536421350     -2.05597730176933     -0.05800844168770
  H   3.28816802747422      2.02889490964290     -0.08442175921565
