28
Coordinates from ORCA-job 4240optt
  Br  1.91848393318497      0.70647300676025     -2.23045488389359
  C   3.36719869265053      0.46616425274631     -1.06362182404807
  C   4.00433353918288     -0.71035948657495     -0.93031652501766
  C   3.69207691674550     -1.99405055716365     -1.63971536116132
  C   4.95847790746259     -2.81890250808103     -1.43104342888415
  C   5.52029157108225     -2.37617069907374     -0.07400911757608
  N   6.93137028566013     -2.74915198873735      0.02977610088872
  C   7.34039217081231     -3.12976189387412      1.38039387775850
  C   7.03136015425103     -1.93185520175527      2.26318556643142
  O   6.36007397894898     -1.99951581908862      3.26362851548898
  N   7.48368931544142     -0.75239445833596      1.72190518333945
  C   6.56250482661668      0.35539200030383      1.74327028094736
  C   5.48444807832914      0.19173248604390      0.70267225140799
  O   4.84708032675995      1.37336726336147      0.55384695424493
  C   3.77825517524786      1.62253389659943     -0.28427575909004
  O   3.31149103123086      2.72008948366810     -0.29720651061302
  C   5.12007303350731     -0.88691663858871     -0.02649571703405
  H   3.43193184227940     -1.83150239311289     -2.68437306067668
  H   2.82641939463126     -2.46033623672477     -1.15930184221589
  H   5.69471088785875     -2.56173261852158     -2.19758189134998
  H   4.78557151696173     -3.89399940300260     -1.46420922233778
  H   4.94672407388416     -2.87636027607735      0.72188301317306
  H   7.13172396312747     -3.49633677339773     -0.62233038439421
  H   8.40913473759015     -3.35245202451888      1.38419345149312
  H   6.79187287546831     -3.98259616422393      1.79084826902068
  H   7.89608683094456     -0.89407708288080      0.80816552819960
  H   7.07954447359743      1.29674373635289      1.55733727130268
  H   6.10367846654233      0.41997609789776      2.73082926459603
