22
Coordinates from ORCA-job 4247optt
  Br  1.43936301433619      0.31053159607874      0.76522998380039
  C   3.24786708533921      0.02506991290459      0.41652822404941
  C   3.83476217020122     -1.17165720146107      0.47703476383294
  C   3.27228999181846     -2.50255289404858      0.52085926647547
  C   4.22433448716820     -3.36135860220313      0.13652825728326
  C   5.47264268952357     -2.63615115719258     -0.13082369526576
  N   6.50993975828106     -3.18687324413881     -0.62652434459295
  C   7.74920430608024     -2.56919315681211     -0.76418394832753
  N   8.47102723780544     -2.55169113731899     -1.79971353384004
  C   8.31893389592616     -2.02821262637143      0.51851032283907
  N   8.10187222913530     -0.87342043474813      0.97419352234919
  C   7.27771147670758      0.02501555225909      0.32236354417786
  C   5.97687944419787     -0.13272157583124      0.03640835466555
  N   5.20806675482987     -1.30219362043679      0.20607735778591
  C   5.23942089898368      1.11312780829668     -0.30441303232214
  O   5.72177679064639      2.09585321102202     -0.75965421729188
  O   3.89659112735216      1.15130813675525      0.03539495168172
  H   2.24228937286990     -2.71033816796307      0.76178734324689
  H   4.15326587225029     -4.42746368830066     -0.00125028556153
  H   7.97566749999033     -2.97841640079532     -2.58371029072020
  H   8.94965731415075     -2.69947023843017      1.09869289653315
  H   7.70743658240605      1.00080792873569      0.13366455920122
