22
Coordinates from ORCA-job 4248optt
  Br  1.33178272032782     -0.88531771310477      0.34412435248217
  C   2.95554000196339     -0.01470433284967      0.01122127627453
  C   3.01373616577012      1.32434111767579      0.06273688683245
  C   1.98474993639315      2.31850046865213      0.36333482181573
  C   2.16517149521223      2.99735158261479      1.49819087027799
  C   2.50680756714004      4.38388075211459      1.22038080818375
  N   2.20381306046361      5.57283136156152      1.63437498572960
  C   3.04835918180123      6.37262744399373      0.91027692924458
  N   3.86352126631562      5.74967472704767      0.10375234010382
  N   3.52793322921479      4.45106701975644      0.27754766356410
  C   4.39309415628083      3.46715707892215     -0.34218359874840
  O   5.33284089904723      3.86537878438062     -0.94899274840703
  N   4.20704307597908      2.03406821945619     -0.20922018090941
  C   5.33050453913950      1.28676473562132     -0.55496399953443
  C   5.32488465376897     -0.05125648530138     -0.58460119700600
  C   4.13473641652106     -0.84666994230804     -0.29656527009713
  O   4.11074412370703     -2.05676281142814     -0.31192902067686
  H   1.57222334405438      2.83381263828971     -0.49986567562313
  H   2.60270742778694      2.52984952377608      2.37418458365631
  H   3.04706788218728      7.44748680891995      0.99151310362854
  H   6.20537377816203      1.87030955105473     -0.78981515476286
  H   6.23036507876363     -0.58539052884546     -0.83450177602832
