24
Coordinates from ORCA-job 4250optt
  Br  0.88901717156351      0.15924736223050      0.05821586518740
  C   2.75235627588718      0.21443009757017     -0.07973482166232
  C   3.48645837526653      1.33517544495238     -0.16605092916608
  C   4.94156388173318      1.20764082422122     -0.20436611549674
  C   5.51138497948844      2.53688544758898     -0.20811651763552
  C   4.51194508603255      3.44782333823808     -0.19534945624649
  N   4.67072312827696      4.81677842240030     -0.16344808669368
  C   3.70302822480020      5.70637250780000      0.36676262315281
  N   3.91911017448594      6.51284974528587      1.31380370967216
  N   2.49031646174313      5.79165818506580     -0.32122988998571
  C   1.77370296376934      4.79302740063079     -0.62525717836135
  C   1.99604232404977      3.36571430332213     -0.38964388729925
  C   3.19244497085581      2.78082146716577     -0.22193724845160
  N   5.57773648122494      0.09517721065111     -0.19397152582068
  N   4.80752349416816     -1.01158281678167     -0.14765046778421
  C   3.42853259294640     -1.09989500740037     -0.07591679247480
  N   2.76165603956312     -2.18393079110912     -0.01650903131299
  H   6.57072593951666      2.74303534490194     -0.19134528976305
  H   5.62016404170908      5.11552074333768      0.01114955536657
  H   4.81806013468579      6.33789201385165      1.75747685819817
  H   0.84583489517579      5.02302877486807     -1.14819391339648
  H   1.11605011649406      2.74336539102116     -0.45880110414025
  H   5.33224627186593     -1.87117840513047     -0.13989210628323
  H   3.36037597469748     -3.00685700468200     -0.02399424960269
