20
Coordinates from ORCA-job 4252optt
  Br  1.25550312453117      0.13672829349963     -0.07892555081761
  C   3.09579225890332     -0.11914327536148     -0.06624097080754
  C   3.71603189705923     -1.31594080053160     -0.05021303505108
  C   3.30437287924235     -2.67772219617220     -0.03676750309940
  C   4.44885843680804     -3.42945362635694     -0.02477724293560
  C   4.43348256545585     -4.88028026629947     -0.00943773513533
  N   3.39091093040552     -5.65169713062777      0.00388558259228
  C   3.96539568859792     -6.89066865247426      0.01335789734921
  N   5.26244139363408     -6.89022648070610      0.00659558028423
  O   5.58167409550744     -5.55091605354934     -0.00869951600755
  C   5.62521750413939     -2.57615086846397     -0.03018934979398
  C   6.98987019101887     -2.96859877469428     -0.02056034013618
  N   8.09927391022490     -3.26311431443256     -0.01250449822063
  C   5.17529410428171     -1.28313845104156     -0.04545434850595
  N   5.86217772444005     -0.10091396071704     -0.05559179361312
  C   5.16562275937606      0.95646049752991     -0.06905154626613
  O   3.79676077381215      1.01476485581402     -0.07485842643797
  H   2.29588665243292     -3.05732398475663     -0.03597337179416
  H   3.40344318449497     -7.81065793352459      0.02510694146395
  H   5.58498992563402      1.95199312286627     -0.07870077306743
