22
Coordinates from ORCA-job 4263optt
  Br  3.34832551789409     -0.80874343161105     -2.61968983408950
  C   2.99262107864520     -0.01108016188211     -0.95663137560947
  C   3.10479587182728      1.34994957670876     -0.74897192775513
  C   3.03888203144354      2.52731871070786     -1.66833260477573
  C   1.74431983005794      2.70376889061480     -2.01431277395827
  C   1.14715780114250      3.70870208520154     -1.09407015850759
  N   0.53270152121592      3.08787722789314     -0.15498382676660
  C   0.56854999756888      3.66979153156149      1.11393942270919
  S   0.14344568156724      5.38000241923803      1.15613134809808
  N   0.99667352347174      5.92681422449323     -0.16357156097902
  C   1.49151569917120      5.13294432181190     -1.03488702978514
  C   1.06751139226662      3.04325858370016      2.18701597625845
  O   1.45804709687765      1.72177424577826      2.28241233180940
  C   2.14378227008761      1.11850587162381      1.28405802032385
  N   2.01658134399096     -0.20162206620252      1.21524310441763
  C   2.50415398204736     -0.75848356365690      0.11780410386155
  N   2.82320838237623      1.86859608814679      0.45292614862628
  H   3.61534820483408      3.37896776559003     -1.32279052639717
  H   1.11741222963092      1.83443143924448     -2.17640324516792
  H   2.05003382076080      5.57433269234021     -1.85591584110440
  H   1.14381756705015      3.55266387650909      3.13642853059307
  H   2.44511515607208     -1.83877032781102      0.04460171819843
