26
Coordinates from ORCA-job 4264optt
  Br  1.17063150587452      0.00333969726123      0.38293880476415
  C   3.05103832078052     -0.08371468536400      0.16011063139595
  C   3.66899950694964     -1.18923368203100     -0.41736240785039
  C   2.93710796462121     -2.38755408534129     -0.95172834092495
  C   3.03250159050369     -3.59301239611948     -0.00994516143578
  C   4.42937682950754     -4.12111488780471      0.08784519435561
  N   4.68697883940231     -5.29798597565133      0.63297541779231
  N   6.00897902890908     -5.44533895206023      0.55931516168848
  C   6.63159972104537     -4.39318117157417     -0.00446388286305
  C   5.63224808032425     -3.50798790907165     -0.34001940753729
  N   5.78891988198607     -2.25453014876230     -0.97140371671137
  C   6.64237222481776     -2.11140904577790     -2.03996442674169
  O   6.89778447067010     -1.07026872704536     -2.58382120355111
  C   5.06274317447617     -1.13615479435149     -0.46759384977422
  C   5.74171988926369     -0.01072396537596     -0.02240129084556
  N   5.12365376920217      1.03974282372969      0.49839169512736
  C   3.80257167746127      0.99777608976530      0.59833255859071
  H   3.36797912787970     -2.65224187021053     -1.92031136859482
  H   1.89234102282802     -2.13599957395293     -1.11381253453911
  H   2.38230190823735     -4.39249054220495     -0.36669560881540
  H   2.67119975408379     -3.30891411986547      0.98166046984457
  H   6.42914452777161     -6.28958031069849      0.90755572588016
  H   7.70097920463817     -4.34133960143643     -0.11909042900645
  H   7.06753117570057     -3.07812859137373     -2.35171171549887
  H   6.82139068802953      0.03089999627246     -0.09783653139199
  H   3.31090611503584      1.85314642904474      1.04603621664277
