21
Coordinates from ORCA-job 4267optt
  Br  1.21759360867728      0.08741414103314     -0.07643838299385
  C   3.06712865337531     -0.12739502046826     -0.06527893807285
  C   3.71469109118328     -1.30835614197670     -0.05520502773102
  C   3.32727579558587     -2.67798295531815     -0.04789920528813
  C   4.48463158749118     -3.41016968552602     -0.04002583094517
  C   4.46549583926966     -4.86679473524834     -0.02750032270496
  N   5.52023196064904     -5.66642488031952     -0.00690836906762
  N   4.95175990278874     -6.85004801717313     -0.00006963489245
  N   3.64199492154363     -6.82724621717182     -0.01454595092128
  N   3.30754822637960     -5.58121263616958     -0.03248321651219
  C   5.65428960133170     -2.53987087240286     -0.04294652607490
  C   7.07073917483317     -2.93485581071224     -0.04122093240670
  O   7.98135870079942     -2.14454598375333     -0.04421875039449
  C   5.17565681186074     -1.25124035270694     -0.05136371516410
  N   5.82688115319135     -0.04700923088214     -0.05638758710040
  C   5.10591996014559      0.99352023641729     -0.06395570479235
  O   3.73697149290355      1.02524053268966     -0.06885448337394
  H   2.32309327654343     -3.06854024385599     -0.04722380506415
  H   5.47521841398454     -7.71218426973567      0.01610764027247
  H   7.26346214065792     -4.01831893378915     -0.03767504098759
  H   5.50405768680497      1.99802107706977     -0.06790621578434
