25
Coordinates from ORCA-job 4268optt
  Br  1.05568106066807     -0.42998757868110      0.58160961195165
  C   2.90193408029245     -0.19218272163229      0.28732004117283
  C   3.49398694044538      0.99907932461003      0.11532627520609
  C   3.00388205379758      2.38501619930112      0.10203183616125
  C   1.59721946379361      2.87830137369135      0.25222664130831
  C   0.78668034403640      2.77841608420711     -1.01082047090221
  N   -0.20450828088848      3.59963467097261     -1.21234578343338
  O   -0.73943277303115      3.27099321436130     -2.43288608390774
  C   -0.05055459777632      2.25274577092691     -2.94816255058189
  C   0.93755479485435      1.88067633712820     -2.10765989778555
  C   4.08738378703382      3.16874221095128     -0.10274211389237
  C   5.30013673902983      2.37534481835610     -0.23167080472486
  C   4.94868121503128      1.07900343595159     -0.10171459452322
  N   5.76535824605792     -0.03678790285682     -0.14593780371150
  C   5.41155821272795     -1.34997513223761      0.00101109836457
  N   6.15920324631306     -2.37138242171906     -0.03143242890117
  S   3.69841380673514     -1.73581825906733      0.27372823582448
  H   1.62446967348172      3.92872822493427      0.54323462374342
  H   1.07671256303095      2.34932840651359      1.05138047016018
  H   -0.37575778750447      1.90140378208083     -3.91318759905669
  H   1.66960029739803      1.10342562930212     -2.23891292307299
  H   4.05787746359681      4.24768098782813     -0.16261356569426
  H   6.29484450165421      2.76032859624806     -0.39559784713776
  H   6.75018638873923      0.12885661119584     -0.29626612315772
  H   7.13888856048253     -2.14457166236626     -0.18791824340946
