27
Coordinates from ORCA-job 4269optt
  Br  1.15797167377322     -0.10799879727254      0.01713026557186
  C   2.83027374138093      0.78491588680637      0.07222591641681
  C   3.31028567981365      1.28375412675609      1.24613735877393
  C   2.45714177095886      1.64547583383566      2.43199199927522
  C   1.92556476886284      3.11537466779197      2.28981319841988
  C   1.43002335932446      3.33216955899177      0.89664357735413
  N   0.22506789113050      3.04996898321816      0.50325148276115
  O   0.33745519789202      2.98431559318235     -0.87508607468460
  C   1.61799630060511      3.21916835407693     -1.16915060299039
  C   2.17560646052486      2.80605555022636     -2.48780546646716
  C   2.71106025310052      1.33032436979113     -2.41911292983695
  C   3.50786019995689      1.12410913923540     -1.14999368537984
  C   4.78779104071998      1.56559758151691     -1.08958513124425
  C   5.45617248469505      1.82238075057327      0.16896240330635
  O   6.61325604649576      2.15699767513685      0.32739379548632
  N   4.58380392293541      1.76403139979913      1.25949289456965
  N   2.31949581553204      3.52783254607650     -0.13119239334673
  H   3.02564054763465      1.56775175412896      3.36031475518159
  H   1.60835635598786      0.97013819325885      2.49760036867678
  H   2.73000251173229      3.82316251126103      2.48844248854675
  H   1.12980072026058      3.26981127737238      3.01634177260409
  H   3.00833385920202      3.47032345256251     -2.71407188822559
  H   1.42619844579493      2.88660079780826     -3.27339106741287
  H   3.34574278353589      1.17459220473684     -3.29054116843377
  H   1.87255491367470      0.64107741507732     -2.48193094915754
  H   5.32286485665926      1.86698966755263     -1.98065080386575
  H   4.96667839781567      2.13007950649887      2.12076988410092
