27
Coordinates from ORCA-job 4274optt
  Br  1.05347656100946      0.01500956860496     -0.20715289591048
  C   2.93464076057991     -0.03353144377088      0.05495672546543
  C   3.61258379373937     -1.24704186919729      0.17237084780674
  C   2.95090893960347     -2.54661391021968      0.03900222131269
  C   3.64210266352910     -3.67632481090805     -0.06440135152052
  C   5.14284330456449     -3.71610839732878     -0.00410093994124
  N   5.53586071312894     -4.97625022672887      0.63540337650116
  S   7.14023378652992     -5.17222587599251      0.90869429504681
  O   7.28669013879070     -6.35180541643401      1.70061139155407
  O   7.80401553837053     -5.02232871794393     -0.34743476471965
  C   7.54481970039030     -3.74770580348980      1.89783037292523
  C   6.74490062048949     -2.53511235704780      1.51544184284617
  C   5.70488918041829     -2.48690607820143      0.68214402887964
  C   4.99964688868087     -1.20878745542222      0.41853515150673
  C   5.66321792078719      0.01188543043953      0.45415680887077
  C   4.96650088749783      1.20078493514719      0.30238716678208
  C   3.59390857556432      1.18394698690382      0.11810958808381
  H   1.87243951085595     -2.56461875839381     -0.02916190494179
  H   3.14566527968739     -4.62537124535752     -0.22814850656646
  H   5.53583842432715     -3.75634175128368     -1.02843654790056
  H   5.00017499816794     -5.20025813978235      1.46822413954176
  H   8.61306110740524     -3.57433140944964      1.75372607170577
  H   7.38156591772910     -4.02336711095055      2.94117032894064
  H   7.06225908970912     -1.62001084215630      2.00324533021597
  H   6.73736005953403      0.03124140355507      0.58180972862011
  H   5.49323300241828      2.14565339335230      0.32269135733509
  H   3.03616263649153      2.10351990205627      0.01132613756002
