23
Coordinates from ORCA-job 4275optt
  Br  1.30391605401705     -0.17929821103734     -1.25496720893698
  C   2.98102973194115     -0.13168768668506     -0.39019576574068
  C   3.54623451153288     -1.27533658276407      0.13688858670395
  C   4.90697996726910     -1.16333589127917      0.59802013499543
  C   5.77776492653793     -2.42984581113764      0.87389459804196
  C   4.80593720280370     -3.46059951816943      0.31676994843357
  O   3.70036234102831     -3.27933654176059      1.22689857229791
  C   2.79761668143301     -2.62062791269149      0.37361001167160
  C   1.49500316208722     -2.47232918603210      1.00257173579262
  C   0.43291203517378     -2.40806532454661      1.54710688821027
  C   2.78218665139938     -3.85185630316673     -0.69049341115773
  O   1.95540027212784     -4.17010893751353     -1.46137598432949
  C   4.19709374238346     -4.65829389362649     -0.39128057922072
  O   4.50419265685838     -5.71311275050921     -0.81553550149024
  N   5.54388373443633     -0.01335596539143      0.64517526615613
  C   4.91822249928376      1.09158145895352      0.23307142188424
  C   3.65950780492214      1.08176685444177     -0.32838876681858
  H   5.98952684294666     -2.56240636713785      1.93175098578737
  H   6.70536016677758     -2.32317594441635      0.31462570490529
  H   4.62983420954188     -2.89201179304611     -0.62033376423247
  H   -0.51428036732777     -2.33928530407966      2.02785844417496
  H   5.47129242153530      2.01903273057744      0.32244705876957
  H   3.21102275129086      1.98568888101817     -0.71411837589797
