25
Coordinates from ORCA-job 4276optt
  Br  0.98256513966148      0.37873322299975     -0.33704311875101
  C   2.88517612724685      0.24147532060150     -0.23982755894378
  C   3.47882188821815     -0.96534560828722      0.14145937075108
  C   2.72069032535583     -2.23036834115719      0.44593631275699
  C   3.47627518036427     -3.47028632266985     -0.04038326632532
  C   4.88693307328186     -3.49600323413359      0.49993377339893
  O   5.93330192116485     -3.10818388683512     -0.38428081410801
  C   5.57091519341185     -2.20260123275334      0.62382861030868
  C   4.87369740263118     -0.94383186030041      0.22178126595155
  C   5.57968655765431      0.20764279617006     -0.10304621839779
  C   4.86063676633456      1.32522739922503     -0.48465051904030
  N   3.53173712812113      1.34055935329270     -0.54231875850619
  S   6.80699827570084     -2.09095231609411      1.92619436318234
  O   7.36036667135750     -3.39167843310578      2.11926549644682
  O   7.64605647478801     -0.95471193909566      1.71139419605521
  C   5.78459067666499     -1.73735464419876      3.27107047660957
  C   5.08423422959478     -1.50368604542058      4.21335943641812
  H   1.73592194690550     -2.19174752410036     -0.01278049614450
  H   2.56160686146653     -2.29685438559295      1.52737315778967
  H   3.52894226750712     -3.46716191041197     -1.13048876565149
  H   2.94785651059283     -4.37296023459543      0.26344532309757
  H   5.17910877908654     -4.28843400654919      1.18015678463117
  H   6.65769452315099      0.23304198646060     -0.04851449905536
  H   5.36314404390869      2.24721318072401     -0.74986574480756
  H   4.47204203582922     -1.28173133417208      5.05700119233361
