26
Coordinates from ORCA-job 4285optt
  Br  1.14519822336153     -0.31006767556350     -0.33957906076017
  C   3.00872019343034     -0.06321464835497     -0.17585596367067
  C   3.57644385335494      1.19495268796324     -0.11536105124399
  C   4.94977700602339      1.28027116901851      0.10249102571109
  C   5.36769238137797      2.71279086782353      0.26070637822905
  C   4.17882260221505      3.48852878909317     -0.32396293778965
  O   4.06433639448172      4.77839998840379      0.24011093248997
  C   3.24349502882123      4.93335010348862      1.30109923128639
  N   2.40103543903454      4.13375377771458      1.77031496517520
  C   2.15118163862254      2.86482114494322      1.12858972579062
  C   2.94409740504363      2.56200841241456     -0.16145328521680
  O   2.11547623948429      2.58064858259954     -1.33996669077923
  C   1.44040786412841      3.68891009900680     -1.65484971310562
  O   1.46848957069089      4.72233031156093     -1.06018483230903
  N   5.76514972640660      0.24348260524443      0.20701535607729
  C   5.20245904698061     -0.95904552684747      0.10295875094920
  C   3.84092801677930     -1.16875548383487     -0.07675082096389
  H   6.30954494165429      2.94058497083559     -0.23417547122082
  H   5.47862042135949      2.95228615068514      1.32223150283096
  H   4.32750988590022      3.64124290826104     -1.39350385383011
  H   3.39007624735165      5.91114918719612      1.74792574491784
  H   1.08510528103545      2.80498594123380      0.90074511356088
  H   2.35085294186832      2.07840466538812      1.85994686430082
  H   0.84929402140350      3.49943891534459     -2.55874603401974
  H   5.86928533645742     -1.81074710261393      0.17456569050916
  H   3.44000029273262     -2.17051084100459     -0.13231156691877
