26
Coordinates from ORCA-job 4286optt
  Br  1.20478141825826     -0.11461399692645      0.04195297709464
  C   3.06228824658662      0.08012175493451     -0.07564899068263
  C   3.68959086074176      1.25771434914862     -0.12172865888599
  C   3.26853902748928      2.70104238067216     -0.02855194132485
  C   4.54442339446897      3.38347349550812      0.52752461706476
  C   5.69229388231933      2.55121718495967     -0.05485811102667
  O   6.88120198631524      2.60463956138567      0.71775027616157
  C   7.74464651204216      1.55467897715729      0.69974473369271
  N   8.90259459255291      1.65294628120123      1.17963726891808
  C   7.31810159421526      0.17925313823681      0.18448276607767
  C   7.85902908912928     -0.83145051245234      1.20205902935260
  O   8.42179584670590     -1.83700609940804      0.88794940577310
  C   5.82765401180963      0.05669920180832      0.00884451749218
  C   5.11664771728747      1.17978823811092     -0.09050128788625
  C   5.10599665528022     -1.21378094496450     -0.10431915668753
  N   5.52142380374550     -2.38932750961757     -0.23766023022785
  O   3.70663659704015     -1.09055888844443     -0.08027673659626
  H   2.40126599401196      2.84930509873338      0.61249882300992
  H   3.01946093591631      3.09612473095713     -1.01665201887055
  H   4.57629257090834      3.28201155969067      1.61376850577489
  H   4.61223242130858      4.43901830633882      0.27389413144154
  H   5.92242189307501      2.88352797815418     -1.07487638125979
  H   9.09177527472445      2.59833966112930      1.50999180912796
  H   7.84413461766459     -0.01975847312645     -0.75423654421236
  H   7.66979287571062     -0.57237460948058      2.25827764868732
  H   6.53597818069205     -2.44103086370646     -0.24406645200820
