25
Coordinates from ORCA-job 4288optt
  Br  1.30300788111381      0.42549431513176     -0.53054096454710
  C   3.08008702335183      0.06158546255749     -0.02253126981963
  C   3.61012647466792     -1.16362108906716     -0.15003641502539
  C   2.99071010780629     -2.43951187524798     -0.65673479623526
  C   3.93469596222830     -3.52922836480981     -0.11792090949092
  C   5.30287958039741     -2.86384252847922     -0.02832233241992
  O   6.12668554062020     -3.44100246350498      0.94629344167343
  C   7.47416275211676     -3.18153774665771      0.59599053398212
  O   7.48986585207350     -2.81807592382643     -0.77113304118742
  C   6.19475301172383     -3.01401447804220     -1.28707262072194
  C   5.90194968530988     -2.08022102657484     -2.36935404860818
  C   5.61299635173001     -1.32495227969115     -3.25089274426560
  C   4.97597057656573     -1.40014024931813      0.24304415643165
  N   5.85907935079383     -0.61179159250979      0.73840316231324
  C   5.59863398570416      0.72087138754826      0.97602516826374
  O   6.37960219387184      1.50517979223594      1.42279476497511
  S   3.94535800934022      1.40904624146206      0.60184288872919
  H   2.97760290175085     -2.43542698208925     -1.74957435508385
  H   1.96509854507996     -2.56503724269652     -0.31273694928528
  H   3.95250954270707     -4.42665536180312     -0.73451641759983
  H   3.64166446218371     -3.81564395938689      0.89294094676198
  H   8.04008946576339     -4.09991363765194      0.76074435164251
  H   7.87245351089899     -2.34596350281517      1.17020143518954
  H   6.07635751622221     -4.04176035246075     -1.65322798668135
  H   5.37465971597821     -0.64883654230243     -4.03768599899082
