20
Coordinates from ORCA-job 4291optt
  Br  0.91062227274114      0.11515439358264     -0.49461334716008
  C   2.77566334950247      0.29656145647964     -0.68931487306567
  C   3.47153732752286      1.19594676666476      0.02728299588190
  C   2.91474849626958      2.14837376099798      0.96989684808523
  C   3.65898702444454      3.15822084777077      1.44108623743079
  C   5.02708302805123      3.33484547022586      1.00409555815221
  Br  5.87202003406249      4.96585348274048      1.38350808361659
  C   5.61380913558316      2.34776481811930      0.30640116751531
  Br  7.36366080671582      2.45795420725731     -0.37691412676576
  N   4.90410005760887      1.20284757455733     -0.03196736922628
  C   5.51901303525390     -0.03045621033960     -0.22079719633927
  C   4.98893365512889     -1.01318903163072     -0.93952187667616
  S   3.49724000824634     -0.86160805661357     -1.82240477596548
  C   5.88485720150981     -2.20450373362121     -0.74377052161177
  O   5.77639016604441     -3.28546782589906     -1.22129164165426
  N   6.95987837140727     -1.80972085233846      0.16212667922479
  C   6.73009995019162     -0.59813662543905      0.46504825519471
  H   1.88209342208418      2.03130951992925      1.26355854802774
  H   3.24411860422155      3.87796051050650      2.13293465911791
  H   7.34914405340986     -0.04071047295017      1.15865669621754
