26
Coordinates from ORCA-job 4294optt
  Br  1.86383876186575     -0.06064486085872      2.22547260980961
  C   3.32588597522336     -0.20149994567457      1.02621799409880
  C   3.47751859158614     -1.29382924354941      0.20864903325816
  C   4.59266452728321     -1.37376055394856     -0.64053097047252
  C   5.53455927341807     -0.37420933872456     -0.68231667997254
  C   5.35739959028046      0.73998039669037      0.14415859166906
  C   4.26943176952009      0.82934541023040      0.99150951574268
  C   4.48817037659050     -2.70101833874707     -1.38925680264134
  C   2.94326715672980     -2.74941385399938     -1.54566319347710
  C   2.66713133395182     -2.58467296631469     -0.02212124950020
  C   1.22459792380941     -2.63236801110109      0.41157600394117
  O   0.31410909047928     -2.42202667824422     -0.33783568290458
  C   3.56432454309562     -3.70566210867611      0.48263548818767
  C   4.65611908228381     -3.78427113093522     -0.33064790826957
  C   5.62585179719747     -4.70440950226468      0.13430073479362
  C   5.22148411691544     -5.29832183721584      1.29748974002101
  S   3.69434738786170     -4.72368440039534      1.83671771910944
  H   6.39069231362482     -0.43978140662260     -1.34176654856367
  H   6.07936054496047      1.54577924063746      0.12623633355457
  H   4.13999786480368      1.68988384013915      1.63293650648936
  H   5.09105969245448     -2.78230420104985     -2.28890363376810
  H   2.57643005590386     -3.70232953897935     -1.92233743693388
  H   2.53809444397648     -1.91983571656860     -2.12253395753764
  H   1.04358552658449     -2.91334013720054      1.46450359171066
  H   6.56120456025593     -4.93444584213647     -0.35451849173762
  H   5.72687369934383     -6.06815927449048      1.85802869339297
