27
Coordinates from ORCA-job 4295optt
  Br  1.11639007947290      0.30172479290019     -0.23661806584015
  C   2.97035580151629      0.01282185929630     -0.01417145191673
  C   3.58829980531170     -1.14130351910939     -0.46744535653448
  C   4.93138367238331     -1.35981922717504     -0.16778843377645
  C   5.68074201857305     -0.42862587891777      0.52890485877190
  C   5.06292755061305      0.75134343818050      0.92384045343776
  C   3.71609648667496      0.97084755200279      0.66291905090672
  C   5.36670206689788     -2.73224858296754     -0.63882866393092
  C   4.29083014883618     -3.07004513283505     -1.67525874562381
  C   3.01623131664339     -2.38117929488621     -1.14037797821219
  O   2.36089045143166     -3.22293384350666     -0.18242393962521
  C   3.02291563594120     -3.45303178119580      1.01645456715955
  O   4.19428331504028     -4.25188578913060      0.91293003718114
  C   5.38898896689139     -3.72811746585610      0.50210676522658
  N   6.48021013573901     -4.11928846021479      0.98919898141728
  C   2.06677846136140     -2.14153093658928     -2.22598739579476
  C   1.35664266115464     -1.97924472088402     -3.17417880466903
  H   6.71906002534221     -0.62498436345715      0.76414112395907
  H   5.62543465627127      1.50778754229345      1.45539048495665
  H   3.23497854939562      1.88033616714042      0.99542994574239
  H   6.37370814731113     -2.71900527799609     -1.04896232786411
  H   4.11657679796685     -4.13467114274456     -1.81654468791317
  H   4.55415927744693     -2.61781909708448     -2.63037644131578
  H   2.33866223928428     -4.04676492873159      1.61433464828243
  H   3.26972107291966     -2.52098273812891      1.53156169526295
  H   6.31346555589740     -4.78441004170094      1.74450013557781
  H   0.70856510368232     -1.81996912870163     -4.00275045486544
