27
Coordinates from ORCA-job 4297optt
  Br  1.16946545501287      0.45349586508317     -0.76240365031372
  C   2.94194913443851      0.04454590446247     -0.25995202012281
  C   3.36264662561207     -1.25982199658047     -0.00183715695916
  C   4.68055519058898     -1.49956627073514      0.40979982704949
  C   5.55293778722679     -0.42261787652069      0.52594953989277
  C   5.13459908933221      0.86719744998252      0.24736376924930
  C   3.82727026281567      1.10522107718974     -0.14130792476172
  C   5.19789229025465     -2.88881247808208      0.71753300020212
  C   4.10890777906761     -3.75649197794249      1.36198815787674
  C   3.24803166388627     -4.05297297372308      0.14240319336876
  N   4.20353060016929     -4.23226878769856     -0.91698060734587
  C   5.50682474809424     -3.66074842812764     -0.57653372975813
  C   3.99590137151479     -5.08503072899498     -1.96102289001830
  O   2.99397456851873     -5.72663938571888     -2.13585927632410
  S   2.19253804168302     -2.61306951025059     -0.18642548702755
  O   1.76526570098126     -2.66550388492238     -1.55068206479991
  O   1.23216403776451     -2.53002033965727      0.87786778564709
  H   6.57141058356605     -0.60490068106613      0.84636745288489
  H   5.82468095877710      1.69512775692884      0.34253790216131
  H   3.48309351668184      2.10809052797461     -0.35118185713731
  H   6.08731191189433     -2.80283315136572      1.33868411329119
  H   3.56104544960230     -3.24958910144649      2.15403353519250
  H   4.52591201487549     -4.68634349922492      1.75009356215444
  H   2.55028300551344     -4.88745738790636      0.21557886035902
  H   5.87859939746636     -3.00907893401857     -1.36739543156170
  H   6.24017895618998     -4.44923179330990     -0.38865061893378
  H   4.86902985847157     -5.13267939432898     -2.63296798426555
