25
Coordinates from ORCA-job 4300optt
  Br  1.06051239424897     -0.16136538567903     -0.72829327726588
  C   2.89397622847890     -0.20210318419847     -0.26407046328087
  C   3.51828617064791     -1.31682234374603      0.28353689905793
  C   4.91366779120418     -1.29801659455565      0.39974155922575
  C   5.65029227281360     -0.16945694963361      0.09270953387946
  C   4.99930680466720      0.96648798902103     -0.36665856746726
  C   3.63123097082805      0.94031754965165     -0.56535806227536
  C   5.56809829211865     -2.59908374269422      0.77178427815685
  C   4.89286057325058     -3.24681964964981      1.96746137023361
  O   3.50032275158351     -2.99309096965641      2.00247281241730
  C   2.91101932670593     -2.63555099533029      0.76055990143998
  C   3.09292517367043     -3.73178265101293     -0.30349450089670
  C   4.46348486665615     -3.95689836692319     -0.93427859937791
  O   4.55340475782844     -4.60764041158378     -1.92978743636633
  O   5.58744980170494     -3.48109164029514     -0.36292670141723
  C   1.47563058551770     -2.60360751063336      1.10825495189059
  N   0.38170871634336     -2.70604694969196      1.42640007394719
  H   6.72814856869192     -0.18640186110771      0.19372556329831
  H   5.55849814866521      1.86111316835511     -0.60518240199521
  H   3.11894832296522      1.80159544509754     -0.97069803667385
  H   6.62389721651826     -2.44938008505372      0.98722940735106
  H   5.30376826214795     -2.83681713546449      2.88974737954744
  H   5.08078052998894     -4.32454298240683      1.94575219558268
  H   2.42081126601152     -3.52904933826492     -1.13775268033437
  H   2.78397020674240     -4.68694540454373      0.12812480132283
