28
Coordinates from ORCA-job 4301optt
  Br  1.56758493186396     -0.17861300967424     -1.18200401162315
  C   3.35175093604478      0.07363142358706     -0.57640489064582
  C   3.84309988762318      1.30898459341941     -0.20628022222952
  C   5.14002484292401      1.38125772059701      0.31884967623201
  C   5.94984493426060      0.27508666069877      0.44054467027000
  C   5.45341805295401     -0.95169807687195      0.00611690585049
  C   4.16494834538401     -1.05488490813108     -0.49180681133757
  C   5.34310740736131      2.81215536833754      0.75460018146395
  N   4.48223442609516      3.00559556232390      1.93887882981786
  C   3.09787320238740      2.97054614526415      1.41397583052876
  C   3.26129266149410      2.71412569994369     -0.11246338830266
  C   2.04892283642066      3.09977943350812     -0.92888401724913
  C   2.16111257124944      2.79815817519146     -2.40225710783241
  O   3.19228862376734      2.54565646624739     -2.96104861404364
  C   4.56802960350596      3.52651737273502     -0.38211798290943
  C   4.39666862380809      4.95583246332723     -0.16293664446401
  N   4.22492863891877      6.07022092118946      0.04724407528677
  H   6.94500626919370      0.35594147319749      0.85833544611555
  H   6.06997198953007     -1.83914187849680      0.05996257824498
  H   3.77826877984756     -2.01098534320267     -0.81625415506870
  H   6.36778547346047      3.12313477862200      0.93480763554079
  H   4.67295297277486      3.91377962176203      2.34607566363604
  H   2.58859640139806      3.92207038099805      1.58246276493092
  H   2.51531319341353      2.17210216014696      1.87473981680196
  H   1.88996442404426      4.18324697939408     -0.84104583424145
  H   1.14069237559421      2.63217212076938     -0.54469554149669
  H   1.21260437263654      2.84677760913133     -2.96855061774643
  H   4.95971322204389      3.33555008598519     -1.37884423552949
