28
Coordinates from ORCA-job 4306optt
  Br  1.73159029807591     -0.03474772115700      1.37108258513520
  C   3.36856315858679      0.01741810563820      0.42490581304111
  C   4.07673752272320      1.19074792378269      0.27537809515499
  C   5.31119327714889      1.17748700163340     -0.38489076615309
  C   5.84458515189641      0.02147935980315     -0.91139005786644
  C   5.10850124282563     -1.15002769867360     -0.79257922788727
  C   3.87851475801270     -1.17145823189995     -0.13103135644351
  C   3.16692940532038     -2.40708361866743     -0.03471522691558
  C   2.58914912863279     -3.45515760928886      0.03084843847597
  C   5.84814446080194      2.58477568127765     -0.27590488887673
  C   4.56460426794820      3.39791284515631     -0.40467753998253
  C   3.87679408709217      2.63356673420622      0.75356532771414
  C   4.96870893656708      2.85137272612123      1.83371017039516
  O   6.19364489168275      2.79129275535270      1.10756159909040
  N   2.57479170185635      3.10628259609796      1.11045958636226
  C   2.07694904802241      3.12736219483926      2.39222813166713
  N   0.88152889521104      3.32107926420322      2.76085990070400
  H   6.80394247601798      0.02154416726784     -1.41246856000181
  H   5.47732088950638     -2.07721141486026     -1.20984297706042
  H   2.06728982235906     -4.37972221636878      0.09853554090919
  H   6.70234282284677      2.84266797976715     -0.89350331034501
  H   4.05164179558849      3.26494906045688     -1.35579570947410
  H   4.70084468514224      4.45345871722089     -0.17319373003237
  H   4.95671144002116      2.08072379318142      2.60569005036603
  H   4.85719718389997      3.83833110313797      2.29095317791587
  H   1.88395493542275      3.08545769145377      0.37362128512472
  H   2.83685512689486      2.97666742954914      3.15787089826002
  H   0.25096858989565      3.43883138076880      1.96672275072269
