30
Coordinates from ORCA-job 4307optt
  Br  8.29353494183530     -0.27569775542998      2.38848372553105
  C   7.09783974232664      1.15578847698990      1.99874416787964
  C   7.06955096213071      2.25074061580406      2.80421327849450
  C   5.99574957347061      3.25486012159834      2.54508962251454
  C   5.58552694473903      3.36082138832548      1.00803845536163
  C   6.46131813629319      2.53857749072240      0.10743041246444
  C   6.81973434727488      1.31915543393410      0.57631388970007
  C   7.36688019866413      3.31507572061892     -0.76468963810714
  C   8.69255410870924      3.10668742672946     -0.66123598249227
  C   9.68609374349202      4.19008570501827     -0.39524135521796
  N   10.18356804375002      5.01041514594867     -1.21319839456672
  C   9.84551299389874      4.12544903666989      1.11828774615791
  C   8.75172559307550      4.18718524262432      1.88104544648929
  C   8.98552595365386      3.42855818752941      3.12217479491302
  C   10.47256564458789      3.51866577098790      3.37611231942011
  C   11.02037193003934      3.59010967844721      1.91935338925648
  N   8.20919607584580      2.52287170845691      3.58403962406347
  H   5.10213087020796      2.94320184022548      3.08440261747008
  H   6.28191159816756      4.22489039306204      2.94878798856037
  H   5.57552448747818      4.40900161468716      0.70705746262572
  H   4.56304008298504      2.99572025264885      0.93335204271582
  H   7.37031908424480      0.63764187604765     -0.06154684827206
  H   7.01379727916994      4.28194585135299     -1.11158116010905
  H   9.00951325462282      2.17242968536553     -0.20829881327728
  H   10.78397405157575      5.68299117709633     -0.73365865749852
  H   7.78491128111160      4.46367836847218      1.50233619928947
  H   10.83539389067107      2.65821623424810      3.93225795688792
  H   10.72587474523422      4.43368020855491      3.91370404391291
  H   11.28240720465338      2.58864156553237      1.56438342596274
  H   11.90995323609062      4.21261153773109      1.82084223986977
