30
Coordinates from ORCA-job 4308optt
  Br  1.11317955751660     -0.09145566765561      1.54782093767022
  C   2.83022273761683     -0.09844510612329      0.73128374196729
  C   3.44439389804013      1.10323738791793      0.39640615650259
  C   4.71065371748157      1.07642105791914     -0.20448229384099
  C   5.29148756827105     -0.15973273268260     -0.47113001337897
  C   4.65783640453166     -1.34776233509369     -0.14373217162884
  C   3.41560257389551     -1.32491279487863      0.46438113092180
  C   5.50594833421910      2.31464595854691     -0.60892018359997
  C   4.80443689375110      3.15955537773161     -1.70774971715275
  C   4.62483419055546      2.36816481671369     -2.92152985112536
  N   4.52680878861716      1.71866546369516     -3.86069910041884
  N   6.00764799330809      3.08978284184755      0.51758331299693
  C   5.12174281096280      3.94516107784566      1.30482342620295
  C   4.37273465510373      3.18354073028157      2.41061485875073
  C   2.89107130321966      2.94547317828478      2.09664678615810
  C   2.72553691290433      2.39803314902475      0.70439069666646
  O   2.10014211325164      2.97173179622117     -0.15002451992133
  H   6.26103043439155     -0.19176717357588     -0.95171265464052
  H   5.12968370579300     -2.29501630514214     -0.36801227105533
  H   2.89882266147310     -2.23813657950840      0.72372387951814
  H   6.40572478214112      1.92067590148175     -1.08309448679380
  H   5.44181069181909      4.01334315446667     -1.94893080099939
  H   3.83358815182782      3.53660253450104     -1.39468262752409
  H   6.80705268677915      3.62325283898863      0.20523896807155
  H   4.40378702658270      4.50066362731176      0.68406329822543
  H   5.76739382087541      4.69167421427861      1.76570733219693
  H   4.42751513933570      3.74134521525789      3.34586635424617
  H   4.88574346266691      2.23505187232482      2.57568540505591
  H   2.31960295604254      3.87247583644440      2.14835451412101
  H   2.46996402702541      2.23273066357471      2.80910989280793
