30
Coordinates from ORCA-job 4312optt
  Br  5.44271764233137      2.99101723265157     -2.35183041166107
  C   5.87860930143557      1.14034918187921     -2.23552864843364
  C   4.88491451400467      0.25193228443882     -2.09786610741892
  C   5.17802099954245     -1.20829487726288     -1.82711672359981
  C   6.49317587673623     -1.68562037698040     -2.44273183389329
  C   7.62371206416891     -0.66554979763758     -2.28440407126052
  C   7.19922161745868      0.70446581596491     -2.73536322738758
  C   7.73715892738329      1.37703110465509     -3.76178134480137
  C   8.50322301887940      0.77689042672859     -4.87313945681981
  N   9.68070553806219      0.35838006102413     -4.87262929101642
  O   7.70266455734984      0.74586153197107     -6.04715290263213
  C   6.47182616770164      0.19784225001102     -5.77600111101204
  C   5.30169481137399      0.84210842020837     -5.75744114723090
  C   4.35385529757638      0.30083402299862     -4.79147480621716
  C   3.53382898681522      1.00372304484097     -3.99773585451904
  C   3.47653886895994      0.60191759866055     -2.54294006131292
  N   2.48810527748150      0.52982014608358     -1.76184523775408
  H   4.34613010759022     -1.81675824390442     -2.18513824576190
  H   5.19645818308321     -1.33777117059178     -0.74058324167538
  H   6.33876973148101     -1.87754312738751     -3.50661836734987
  H   6.78762036776414     -2.63707869050875     -1.99846140766676
  H   7.90572841950027     -0.59472346777892     -1.22964467241017
  H   8.51060107351467     -0.97552714665806     -2.83616150947267
  H   7.30362830886191      2.33225815302499     -4.03374681951149
  H   9.92786667628488     -0.02646760117213     -5.78500240430822
  H   6.53710562913090     -0.81593392376998     -5.39047559181844
  H   5.21969954847174      1.86876914673566     -6.09412917972727
  H   4.63291493285869     -0.68907337333099     -4.43961279243736
  H   3.19683037382685      2.00057688791246     -4.25714027611088
  H   1.62167318037015      0.75556448719380     -2.25230325477887
