28
Coordinates from ORCA-job 4314optt
  Br  5.09610386008583      3.24658479975800      2.48782039861474
  C   4.77931571513225      3.62133993082057      0.61523447556665
  C   4.09966362854174      2.71212559076405     -0.12858606629697
  C   4.55518225779609      1.30137669381792      0.06637389279643
  C   6.01460571682850      1.44871084067315     -0.56006413434437
  C   6.82679769855731      2.73712144475388     -0.21655054924484
  C   5.99917144842691      4.04528295020241     -0.09375759784025
  C   6.23212362181466      5.19895302000698     -0.69908792515192
  C   7.26320570807485      5.42732793352519     -1.77256533089428
  O   8.43751044894101      5.60980100542343     -1.57120014492863
  N   6.71930884859609      5.49524680624082     -3.04961376660120
  C   5.41520108394460      5.06352606882143     -3.33610725569641
  C   5.05452128644579      3.88950793470924     -2.81372176468971
  N   3.74263280029701      3.54446458810618     -2.54539349483072
  C   3.40661930930455      3.01937701461454     -1.43228953268720
  C   1.94606211160395      2.62243121558462     -1.39674146746197
  O   1.43600817293909      2.02500898038543     -0.49370883704878
  H   3.98160408056571      0.56205827952003     -0.49104803596888
  H   4.60811116909852      1.00521198545542      1.10789222405545
  H   6.59992488161149      0.58040209991085     -0.25281387945310
  H   5.90269857431138      1.37105843984332     -1.64251675667074
  H   7.60884942604248      2.88385982182130     -0.96641048975975
  H   7.33728862380716      2.59661564857618      0.73742202828798
  H   5.52768212775053      6.01297339906346     -0.56433252353734
  H   7.32079909728828      5.89519655794890     -3.75599970289941
  H   4.71007172548125      5.75865181850299     -3.77708934025765
  H   5.83878765220818      3.23089353424563     -2.46465871483329
  H   1.40014892450473      2.92389159690404     -2.30748570822384
