29
Coordinates from ORCA-job 4319optt
  Br  5.11911623756340      0.44621731068214      1.04319433745072
  C   4.89470725616935     -0.56627207375021     -0.58966948681016
  C   3.84248188214298     -1.41515340118923     -0.70995792810313
  C   3.63226535990278     -2.27634832952265      0.49751178776047
  C   5.03435107752947     -3.03092635441092      0.66069700880108
  C   6.32400273982760     -2.36465451279973      0.08016924347754
  C   6.12148881117236     -1.27354589850305     -0.99873361569470
  C   6.83042449028482     -1.11087213032935     -2.11441414939157
  N   7.95892953774254     -1.80019297137419     -2.54246924291520
  C   8.23017767149472     -3.00061567191116     -2.80955599246442
  C   7.51743600328687     -4.35871603867664     -2.70768145114843
  O   8.23084451609692     -5.30089182786937     -2.45370232976776
  N   6.17121530906269     -4.52421746854268     -2.90657966108966
  C   5.27790307508209     -3.45878323712873     -2.95394685467612
  C   4.14814721280505     -3.35816120597553     -2.25954165311397
  C   3.63510188106008     -1.97927958099471     -2.08137155642204
  N   3.23314090258128     -1.19635784880373     -2.99466415991099
  H   3.43059006535990     -1.68278943144568      1.38272239819627
  H   2.82925853259918     -3.00450491481189      0.38316604882470
  H   4.93290230910572     -4.01992294484541      0.21855613125248
  H   5.18891109649873     -3.19199224430558      1.72725375827785
  H   6.97258355739059     -3.14495593325260     -0.32084621847630
  H   6.87167129784682     -1.89241496935345      0.89738867870437
  H   6.59246040406093     -0.26859854824490     -2.75540312676274
  H   9.26101394568310     -3.21355502945065     -3.09509356509757
  H   5.83813948023932     -5.44023513879342     -2.63330339522528
  H   5.63034742700138     -2.61817009041577     -3.53432474083112
  H   3.80961709285253     -4.15907215222875     -1.61450062432225
  H   3.15977082755670     -1.70001736175212     -3.88089964052204
