28
Coordinates from ORCA-job 4331optt
  Br  0.27119860588354     -1.02566944187965      2.35049527689396
  C   2.10069072653854     -0.81969010029205      1.94326102030491
  C   2.80209192442472      0.28167380356143      2.23919060490032
  C   4.28815842412942      0.26340872358344      1.97030509189868
  C   4.85748898976760     -1.11766792443977      2.30501724664463
  C   4.12654501949137     -2.23678872701516      1.53639647715288
  C   2.77319246949405     -1.76497168069031      1.04519744219724
  C   2.38912129995738     -2.02610878526028     -0.21270676406075
  S   0.95286824211183     -1.58265171523125     -1.14635016035806
  C   0.67761384810200      0.19918351046624     -1.14653182299317
  N   -0.24826789835770      0.69867638920435     -1.83800640419561
  C   1.48826663485463      0.99131937796555     -0.20360044745303
  C   0.88320133364173      1.74099014862058      0.71263355496235
  C   1.48257716038102      2.16554070887812      1.99464498247337
  C   0.96497925552499      3.42616390739418      2.63312548642063
  O   0.08681031402119      4.07969486216731      2.14961559381975
  N   2.28469010812532      1.48799237990632      2.72210938106404
  H   4.76053284289101      1.04085217631309      2.57021232113348
  H   4.47666719273880      0.50927137769935      0.91779965345179
  H   5.92411564258510     -1.14581533528569      2.08279224322071
  H   4.74669605114142     -1.27233034474356      3.37820585633612
  H   3.98403552033583     -3.09846391819685      2.19226555535407
  H   4.71580611726315     -2.57075834068404      0.68257459770985
  H   3.02931644161056     -2.67122449303670     -0.80347718916095
  H   -0.76912059979071      0.00456968824002     -2.37405465658630
  H   2.54928698901401      0.78098425135164     -0.18127986359356
  H   -0.18189207428661      1.93036644661576      0.62438830381599
  H   1.45132941840581      3.67745305478789      3.59077661864662
