29
Coordinates from ORCA-job 4336optt
  Br  5.05849193515696      4.82363958961605     -1.00109365667157
  C   6.14659827379650      3.59355060205326     -0.04799653024638
  C   6.75482593700030      3.95846547966892      1.08847117388068
  C   7.44694047475358      2.87417686830370      1.86519381078495
  C   8.19581304176634      1.85539358836912      0.97814514418842
  C   7.62509482620504      1.71437404917463     -0.41337124254088
  C   6.49814935429120      2.38537197846411     -0.76388981788523
  N   8.41721675576654      1.34767373409711     -1.49562892008668
  C   9.69322113993339      1.38621640826686     -1.32804780041137
  C   10.28697494440706      2.48919635938234     -2.07675804096431
  C   10.85716368215203      3.37890654438177     -1.23856501073440
  C   10.34997899333571      4.76876371675198     -1.18956845808251
  N   10.17785558605935      5.54030781060086     -2.16467060417208
  S   9.79158284959294      4.94517734752814      0.52967418789204
  C   8.72086244229030      6.32003077444421      0.59136386573502
  C   7.48665298600599      6.31100139660202      1.12889382096035
  N   6.68597259660277      5.28640876322272      1.59400282076784
  H   8.14065867852893      3.32116352423747      2.57658013583042
  H   6.68419120157869      2.34806788915214      2.44746299256950
  H   8.18977051704876      0.88199804825380      1.47409188443787
  H   9.23776346659418      2.16272055452189      0.90734897922073
  H   6.13382091994462      2.27742082699519     -1.77530530539574
  H   10.21637340701566      1.05260951512343     -0.42824499195040
  H   9.76723043429262      2.81761960500386     -2.96732564282319
  H   11.27256598030044      3.01682105926674     -0.30235506761941
  H   9.65164775181449      6.37715427441128     -1.91444817408512
  H   9.14572965778292      7.28884110753315      0.36488826329548
  H   7.02774099516156      7.28292596421719      1.27735796541918
  H   5.74011117082090      5.59800262035595      1.76279421868676
