23
Coordinates from ORCA-job 4337optt
  Br  1.17649079219056     -0.20961603073987      0.56568918192912
  C   3.06253094184913     -0.08797804964103      0.40106880566210
  C   3.68349178139002      1.13010919302972      0.15472838427903
  C   5.07065029098338      1.14810789090571     -0.07372468725612
  C   5.79564445383643     -0.03789956110426     -0.00478307206579
  C   5.16036523345827     -1.23163214761396      0.28143568854404
  C   3.78768188903846     -1.26611312902488      0.47954168280513
  N   5.79962098071528      2.32058060118736     -0.34596626993622
  C   5.22240818754441      3.43140031905577     -0.14200411043119
  N   3.89495694021725      3.53063602098017      0.21670226552002
  C   3.33717545929942      4.60757756297608      0.89989313040270
  O   3.84846362187669      5.65906725144270      1.10491145342682
  O   2.10907107917158      4.23543379471532      1.30427802810088
  C   1.89434525092092      2.84206287916702      1.08148514765821
  C   2.95047555867942      2.45032895826727      0.01319626435263
  C   2.35668117721455      2.54257431586805     -1.34753143029655
  N   1.90006781845060      2.61512806607492     -2.39545754775413
  H   6.86174126105645      0.01220689709772     -0.17774182082702
  H   5.72972577336389     -2.14985604921749      0.33612730250374
  H   3.27582451991979     -2.19807176034524      0.67202569416473
  H   5.74930268479377      4.37702464171006     -0.21181753514809
  H   0.87520993654111      2.70337698076470      0.74073569060903
  H   2.07007436748858      2.29555135444414      2.00820775375693
