27
Coordinates from ORCA-job 4338optt
  Br  2.24874890557830     -1.31509532437903     -2.05194169342415
  C   3.46100985371389     -0.10898310350879     -1.26488059260872
  C   3.34505775326856      1.22606476610166     -1.40001382796100
  C   4.47977892399337      2.10039849123965     -0.92276555426093
  C   5.79907699706204      1.33562269958376     -1.00212952727532
  C   5.73375164380119      0.05132541232368     -0.16864327186938
  C   4.33203618887139     -0.51423007333322     -0.13328810613956
  N   3.95118815099003     -1.10971135502599      0.92820735835336
  C   2.63897448131299     -1.55321519811082      1.20957177680951
  N   2.39294115060409     -2.70116783654253      1.68612626324787
  C   1.50366654161408     -0.64541159527702      0.90007078858627
  C   1.67087014701577      0.65038833742984      0.68008215819882
  N   0.77469612922813      1.45275011583896     -0.07259382055486
  C   1.13143984757099      1.92605612499454     -1.31392539572694
  N   2.24565052881030      1.88791303264159     -1.93356293379504
  C   0.03063623868279      2.61005965728828     -1.98447120786150
  N   -0.85732345663349      3.12854038532294     -2.48770675527082
  H   4.49152300583609      2.99293570524245     -1.54912810780558
  H   4.28310368575201      2.43956234471335      0.10239277985641
  H   6.62398844751791      1.95958196539104     -0.65987273814555
  H   5.98575256108718      1.09475308506202     -2.04933240906669
  H   6.03368977732604      0.22437868403994      0.86494091767409
  H   6.40424759017076     -0.70732216719516     -0.57903925072717
  H   3.26203315030939     -3.22352777970987      1.80058876147642
  H   0.57783423845005     -1.14665457347353      0.64579015994243
  H   2.58806095098690      1.14839694482649      0.96270436758315
  H   -0.21743343292077      1.36759125451573      0.09681986076490
