26
Coordinates from ORCA-job 4340optt
  Br  5.09387112017038      3.36759317728726     -2.24669239900538
  C   5.39132784782818      2.35084459350834     -0.68057679865437
  C   4.27705217684566      1.95691480850585      0.06745992039901
  C   4.43048040177967      1.01123307386875      1.06711374674849
  C   5.69798453790451      0.52480141977988      1.36740590933933
  C   6.80782254455881      1.06340545371100      0.74378301365301
  C   6.68371211319845      2.01387998062989     -0.27382542617739
  N   7.85534855938753      2.57057621872905     -0.83517786622875
  C   8.30111552915858      3.88983299285676     -0.69807237943620
  N   9.53140154750688      4.13526100594911     -0.87030972555844
  C   7.20303033457206      4.88074745804989     -0.46861183550535
  N   6.51247195529181      4.82097471944387      0.59165345325483
  C   5.17956891119476      5.24196915151578      0.48004453277602
  C   4.34881751627911      4.37058258250063      1.05556938471601
  N   3.07422127994732      3.97262304291277      0.59601670110201
  C   2.96773489064276      2.72580783232371     -0.00733612423334
  O   1.94337557301851      2.30770197075597     -0.47801408878564
  H   3.56335842912178      0.69461789220407      1.63270976648818
  H   5.82489113988364     -0.22229897872694      2.13921557353509
  H   7.80352334535473      0.77093841708807      1.05314194801015
  H   8.64076872753999      1.93630484674312     -0.90344714065991
  H   9.71944893780760      5.13062101106124     -0.79455574063857
  H   6.91677487274611      5.48233780178375     -1.33672377385902
  H   4.88399664939786      5.94268362525552     -0.29780156294598
  H   4.79288320714611      3.69888420308005      1.77879248226088
  H   2.33201785171707      4.62816169918257      0.39823842940535
