24
Coordinates from ORCA-job 4341optt
  Br  2.02322847938677     -1.27712995987546     -0.43989900778629
  C   3.51355895115407     -0.15399086940025     -0.14557644489259
  C   3.72294843956065      0.98483233742473     -0.93148939483574
  C   4.99024631545252      1.54875977880901     -0.94770649010744
  C   5.98116484954797      1.07524584710439     -0.09174404356306
  C   5.64095591628255      0.17260181356037      0.89942773984550
  C   4.37205935862056     -0.40554152676856      0.90856358717911
  N   3.88922628831255     -1.08097081655051      2.04935156228577
  C   2.89787350592920     -0.56943800459756      2.86392457192310
  N   1.94914330274295      0.25730921837387      2.71019887316268
  C   1.33684299803559      0.93081741191557      1.67133063388355
  N   0.12830131633309      0.83194576737864      1.34658903907631
  O   2.13312828067588      1.84833545886377      1.01045410648002
  C   1.76930677407824      2.17765212834346     -0.27869215373427
  C   2.53408790011736      1.78116204387498     -1.30358604637519
  C   0.64276088244390      3.05328243761722     -0.45683761405812
  N   -0.21208853463364      3.79444608116865     -0.64248490154268
  H   5.17302435087977      2.42069584371112     -1.56282080139923
  H   6.97205780259129      1.50716650640998     -0.11493556822394
  H   6.33335133172050     -0.05802628232486      1.69983039303953
  H   4.54882401282844     -1.66277825737988      2.54246033769025
  H   2.97798287243100     -1.01050448219331      3.85840822711047
  H   -0.34620224494104      0.15004876960428      1.92912923436152
  H   2.32021685044979      2.12907875493036     -2.30489583951925
