17
Coordinates from ORCA-job 434optt
  N   1.78863004847912     -0.43381690599057      1.14154511187484
  C   2.15018785511240      0.26489345748843     -0.08616701444106
  C   3.16590626620380      1.32645199635098      0.23400531978357
  O   3.35155695766576      2.33432781946804     -0.74469941337571
  C   2.76285387695935      2.71004008684896      0.49677238971361
  C   3.58816642161928      3.63774620944957      1.33761378792853
  N   3.52796300007995      4.97750453183113      0.76324704350565
  H   1.21054564387561     -1.24094274048793      0.94739626908198
  H   1.26134264120037      0.17487975555480      1.75631669523460
  H   1.31128002006924      0.73855352908166     -0.61018002641104
  H   2.59719898461583     -0.45694654887719     -0.77284265661615
  H   4.08113960119174      0.96633092641696      0.69693878850814
  H   1.70874984150485      2.96637185794886      0.41548958998637
  H   4.60277371325100      3.22749132023689      1.41156587991944
  H   3.16698069176163      3.67285377298632      2.34496266446385
  H   3.93662735526957      4.96953152440047     -0.16464537623299
  H   4.05609708114048      5.63672940729260      1.32068094707636
