25
Coordinates from ORCA-job 4350optt
  Br  1.21406433996825      1.08923047228598      0.65154221613600
  C   3.00066969761932      0.75046586218713      0.17900741256617
  C   3.98159427464337      1.67541093104707      0.28610539827263
  C   5.33325639409322      1.37485058903585     -0.14043834566620
  C   5.62680147146916      0.01263821271010     -0.50545387612679
  C   4.66631303460656     -0.92261449456754     -0.58926600764379
  C   3.26138753033392     -0.62654334104899     -0.30973347330865
  O   2.37891131445008     -1.44817761494483     -0.45019098159459
  C   6.28598861359653      2.35679038322280     -0.35789690167974
  N   7.63347956805114      2.05872617321366     -0.43894158386292
  C   8.40293968398492      1.25572842826067      0.41284167381718
  N   8.05809971929140      0.47704541182969      1.33825465510732
  N   6.07515291133214      3.66234288795901     -0.71926293779298
  C   5.04170435407090      4.38652868365332     -0.52561312899009
  N   3.95814314479624      4.14102552038726      0.24204415626346
  C   3.73625533597805      2.96337179083010      1.00204902700961
  N   3.31807072735719      2.97331758564307      2.18617266544023
  H   6.63947772544923     -0.23509979031092     -0.79356373535352
  H   4.88217912949460     -1.93079178467786     -0.91709672954422
  H   8.15307944981095      2.77604615163512     -0.92460131439001
  H   9.46193978143929      1.37609495176335      0.19053537020135
  H   7.05065656713666      0.42609049064689      1.47814608217913
  H   5.02156206758987      5.36249448367383     -1.00281483432989
  H   3.34267400650077      4.91872011938494      0.43220366101711
  H   3.20959915693616      3.91730789618027      2.55697153227320
