23
Coordinates from ORCA-job 4352optt
  Br  1.07289190485162      0.85549376382498      1.69748415410988
  C   2.71901828800673      0.55131708870282      0.85704081523355
  C   3.42316520024172      1.53223053080166      0.28956518605478
  C   4.74129808832783      1.27586869393613     -0.36405482060138
  C   5.14430198104510     -0.13118517778693     -0.49606338549322
  C   4.43969415713262     -1.11721248707329      0.05706532143718
  C   3.19910400947800     -0.86950185594205      0.82168400350901
  O   2.60288752812701     -1.75351172380929      1.38139260495814
  N   5.56828957850520      2.15409912114712     -0.77907890502409
  C   5.53363903218736      3.55002774900661     -0.74922814150645
  N   6.47033769630267      4.17646127376887     -0.17941713263121
  S   4.19484587591505      4.36268021071393     -1.65094588985267
  N   3.01196502620800      3.22384677065556     -1.19578588052022
  C   3.05484136078354      2.95711817440306      0.07058098159663
  N   3.13378328578985      3.76772681532409      1.15181192105905
  C   2.74191823718047      5.11878197090029      1.27745713009762
  N   2.22006212841892      5.86899057900252      0.41978845235639
  H   6.07074149700432     -0.30536645161048     -1.02745076967300
  H   4.74431099136612     -2.15377848420618     -0.00224659027624
  H   6.31570696644243      5.18193766741612     -0.22351567047860
  H   3.34803257059550      3.30304912397700      2.02361471745448
  H   2.92564630826389      5.48417879582823      2.28532502945921
  H   2.08751828782600      5.41874785101922     -0.48302313126883
