24
Coordinates from ORCA-job 4353optt
  Br  3.69175452299616      2.62051039767617      2.78078557483984
  C   4.48290409474842      1.95807221983911      1.19721829354114
  C   3.76959808285496      1.97145099939113     -0.00196849544417
  C   4.25288529175352      1.23644272683480     -1.08039924190492
  C   5.47977523506828      0.59569768824179     -1.00146738876653
  C   6.29093351211831      0.82010828386418      0.10193750044457
  C   5.81464485082934      1.53830216552693      1.19270941285324
  S   6.93289244131946      2.25220229641393      2.36613424672010
  C   6.58228551318562      3.97300372515482      1.92769073036814
  N   6.67312270570236      4.82325903837278      2.84965087387030
  C   6.33233533217549      4.22970459929484      0.48046924231200
  C   5.19465411352770      4.53628093662627     -0.12699651339784
  O   4.00960381413398      4.81740200128664      0.51467290265654
  C   2.85678396405642      4.25993105772197      0.06218338001959
  C   2.67427957197750      2.95368528569796     -0.18897320999582
  C   1.40803619342912      2.52290304601119     -0.69659978586710
  N   0.41025906743184      2.14464097941647     -1.12044662594333
  H   3.67683370275730      1.21553555004286     -1.99790158736831
  H   5.84676220161178      0.01818806544262     -1.83899144652253
  H   7.32225949333523      0.49161602022501      0.10441174021229
  H   6.53045426621936      5.76699859407118      2.48774970390906
  H   7.18579862566404      4.06824978241355     -0.16803439686972
  H   5.13605894053659      4.62482573503633     -1.20643626434541
  H   2.04508446256714      4.97198880539743     -0.01739864532115
