22
Coordinates from ORCA-job 4354optt
  Br  1.91609525518006      1.16974704880521     -2.84622085587198
  C   3.00281773001235      0.72848880809929     -1.37478053429740
  C   3.88284076754078      1.70782760537189     -0.86295405656000
  C   4.88984968005111      1.31578749119881     -0.00605807475119
  C   4.87788771673543      0.00623907610700      0.50029945999646
  C   3.76687289822268     -0.80534560989547      0.30054188656603
  C   2.79106435881676     -0.41351187208179     -0.61563305324952
  S   1.13248734906044     -1.04228489429781     -0.51330701339555
  C   0.30963840065786      0.45634860038865     -0.02537755764580
  N   0.93013313291598      1.51422962522082      0.24598182654590
  C   0.42505709201491      2.81386021742115      0.47606615972750
  N   -0.69209947015829      3.22125158760395      0.86197680079247
  O   1.42134639450036      3.74940856131616      0.22826575979830
  C   2.63354966120778      3.12142224229871      0.13018782462832
  N   3.27043296433178      2.99845979831766     -0.95425870141155
  C   5.90951028933349     -0.42164501631721      1.39989718758310
  N   6.72602600839110     -0.76872076142672      2.12720448494231
  H   5.59686096020662      2.04218938070628      0.37230379817581
  H   3.64160602718955     -1.70881959509512      0.88100057567228
  H   -0.77869908072978      0.34089867676963     -0.05659661190536
  H   -1.34901649587521      2.45431926679525      0.97784382004372
  H   2.91873836039420      2.62084976269365      1.05561687461614
