27
Coordinates from ORCA-job 4358optt
  Br  1.15456293600764     -0.07717970406998     -0.46717622277446
  C   3.01631701987556      0.08506031042966     -0.29122753007924
  C   3.66673177331553      1.26131494805197     -0.19156237557456
  C   5.08415776707793      1.22873601830570     -0.00448842263936
  C   5.59271896893580      2.63681280481889      0.13276717564477
  C   4.45314012597997      3.48517678305950     -0.45002306809907
  C   3.15523377879016      2.67660293486149     -0.18994967107046
  C   2.43447532983577      3.08190057277033      1.10805166130147
  C   1.45661319398959      4.14143133383033      0.61625883876190
  O   1.11759404893896      3.74104552772081     -0.71566290442971
  C   2.11475341472564      2.99490712285708     -1.25215055632191
  N   2.19268506932255      2.63940722088363     -2.45200157200909
  C   5.77042670969882      0.06509977010666      0.05371340652279
  Br  7.62738325484632      0.00862848293344      0.30898307157207
  C   5.09057264148164     -1.21807686234208     -0.07313658966778
  O   5.59221580251056     -2.31888943347509     -0.04128246841052
  N   3.70621518627344     -1.08486167655560     -0.24116354229500
  H   6.54374634885105      2.78411131512763     -0.37672469804263
  H   5.76024845136494      2.84754980061147      1.19358420432529
  H   4.58293255904312      3.57347142349823     -1.52890449092167
  H   4.40164646415313      4.48844134735883     -0.02592878516259
  H   3.11882355999641      3.45526504362188      1.86906468638055
  H   1.88901137466218      2.23007924530857      1.51503031486873
  H   1.91030677077346      5.13506462588639      0.57658131374376
  H   0.53625015032862      4.19220830038963      1.19277372849142
  H   1.40876746221036      2.99396774805292     -2.99733368465859
  H   3.21146983701078     -1.96227500404232     -0.32909181945609
