24
Coordinates from ORCA-job 4367optt
  Br  0.92686200620413      0.19305236366755     -0.11905983233771
  C   2.79905412842393      0.15109109225972     -0.10343321880580
  C   3.55575936637400      1.26295974628454     -0.12384719443627
  C   4.98458427645596      1.22242292050975     -0.02199565220058
  C   5.55397379010622      2.61498938000740      0.06011340054576
  C   4.41963252863296      3.47542435108883     -0.51391058283904
  C   3.12823075835080      2.71718219788387     -0.21310565231290
  O   2.54805222369569      3.13333378453898      1.02362474285775
  C   1.26663215534767      3.51235874612920      0.83762726023109
  O   0.52678038805075      3.88232733993149      1.67992645040079
  C   1.00520308147667      3.40258556618938     -0.66755382035605
  O   0.02062763043924      3.67287808877148     -1.25992715730611
  O   2.15652749907761      2.96600878879408     -1.21496295314228
  C   5.58085305937211      0.01910246980002      0.02770834633051
  N   4.82026435288314     -1.11791001838138     -0.00727778676645
  C   3.42358494481518     -1.17810643114617     -0.04417178490730
  N   2.73493100296992     -2.24830006949828     -0.04037306639876
  H   6.48169536174787      2.73399897164546     -0.49679363392609
  H   5.74996645291739      2.88451594086505      1.10006963658984
  H   4.50066839053108      3.52650849710587     -1.60013637785732
  H   4.37410410131222      4.48712481100414     -0.11606558008068
  H   6.64963736468919     -0.12762890265054      0.09907188027340
  H   5.29398856783225     -2.00737701396674      0.01652161825574
  H   3.30938656829396     -3.08654262083370      0.00095095818846
