31
Coordinates from ORCA-job 4370optt
  Br  1.34590238853112      0.08698549666057      0.31368851000408
  C   3.24037315800544      0.03894479559734      0.12932558822403
  C   3.84788834610275     -1.12275984472152     -0.30425903262798
  C   3.27279344482252     -2.45253124851443     -0.69842547859605
  C   4.50925353083691     -3.37180371467483     -0.68232976264938
  C   5.71643507127646     -2.44709093133473     -0.93284991834733
  C   5.23380488142235     -1.10546378640626     -0.43554307402784
  C   5.95541763666338      0.04426668948576     -0.14518115857501
  C   7.45229875872519      0.09833289253722     -0.29354111111627
  C   7.93101660923369      1.12878318810649     -1.33852689949333
  C   7.89014822605354      2.58885925623761     -0.82490269972235
  N   6.59533107767950      3.10687746883759     -0.46371684251299
  C   5.90281008190823      2.46133147581016      0.63960240230741
  C   5.22256256635614      1.15284781029452      0.30059064758569
  N   3.89571995033973      1.13824841668213      0.43015276198296
  C   9.30544358343530      0.81627639547429     -1.73588120142459
  N   10.39197911534669      0.58309938798254     -2.01803490572459
  H   2.83414417764823     -2.38223782973809     -1.69839463832014
  H   2.48247082532286     -2.78452467620225     -0.02629961944531
  H   4.44332573791790     -4.18135339028835     -1.40637586956085
  H   4.60656639274601     -3.81977260662530      0.30762090937616
  H   5.95127351588983     -2.37702634252845     -1.99968782728386
  H   6.61879613399769     -2.79166114960802     -0.42817758972027
  H   7.82006885849520     -0.88541958910882     -0.58010821487562
  H   7.92338861686235      0.34289555544534      0.66372856195991
  H   7.30611670343138      1.04782219535124     -2.23267124101615
  H   8.32420856281312      3.23749708866474     -1.58668885159346
  H   8.54055060063969      2.64947231109603      0.05295644411644
  H   5.98779863675448      3.22145498207316     -1.26515331707805
  H   5.13574076402788      3.13318973098962      1.02168079820187
  H   6.63437204671435      2.30745997242469      1.43940262995288
