30
Coordinates from ORCA-job 4371optt
  Br  1.13739495540759      0.16044249463749     -0.13229614914824
  C   3.01322927956176      0.04348830432886      0.09888572620933
  C   3.64414202890246     -1.18786961866549      0.01242454340591
  C   3.06020179419036     -2.54467297099862     -0.26532225975045
  C   4.18817919894203     -3.50323860684073      0.15925253646047
  C   5.49121039037813     -2.69339913874661      0.01647295246401
  C   5.02550669544546     -1.26551020467260      0.17295172249720
  C   5.78450947634842     -0.12927728118957      0.40862517889095
  C   7.27122645816533     -0.16617956190926      0.60674978561147
  C   7.91390229353283      1.12388622180384      0.12868977093842
  N   7.25321243557203      2.29299395903077      0.69662092802860
  C   7.98039210448117      3.46928397380436      0.92099691511182
  N   9.18759881698734      3.70302505245595      0.63350611876945
  C   5.86698525375215      2.35467425915739      0.81490561781104
  O   5.29635908780980      3.36906129630039      1.14351096454556
  C   5.12507960021649      1.09669201938382      0.50607656907376
  C   3.74483649221658      1.18842238929466      0.35736533219660
  H   2.83505776815442     -2.63192724688618     -1.33301429865523
  H   2.12646540675290     -2.71513239602353      0.26958216404954
  H   4.19870838109622     -4.42456125768933     -0.42017534187845
  H   4.04973898546909     -3.77222270554098      1.20738471607924
  H   5.93732708613996     -2.83128555764750     -0.97398848436917
  H   6.24443282073132     -2.97949620080166      0.75128240204273
  H   7.71347726757879     -1.00480733097203      0.06784000256762
  H   7.49465934346486     -0.31110662537841      1.66853745482809
  H   7.89336923532325      1.17834471635162     -0.96455833152037
  H   8.95541885613273      1.14100022511054      0.44578217745393
  H   7.37871185663654      4.23171115001825      1.40271161422744
  H   9.64836517232706      2.93294036147378      0.15357648680046
  H   3.26930145828288      2.15472028081078      0.45362318525827
