24
Coordinates from ORCA-job 4375optt
  Br  1.19484649540592     -0.39423841533225     -0.40419677719729
  C   3.03233267074233     -0.05245652449631     -0.22874551477613
  C   3.62020656918962      1.15579629220416     -0.01857125049899
  C   5.09039864483567      1.08238927239129      0.07827720983875
  C   5.56860752487290      2.35432748127815      0.28320311085740
  C   4.44813487826316      3.21775196858889      0.31397145996246
  C   3.26489535897320      2.51558337422929      0.13747121151259
  C   1.88721082659214      3.12608274667816      0.10698548611154
  C   0.94458508290366      2.62889163778509      1.25850512345667
  N   0.72080156531929      3.80320584203788      2.09556236796784
  C   1.32592617427179      4.75517973415526      1.54369199583243
  O   2.01715750449627      4.53687006080055      0.40114130504802
  C   1.27017181014979      2.99466263972756     -1.21769238071901
  C   0.75787395860659      2.86876038075089     -2.29214949232538
  N   5.78347967978134     -0.07778770894853     -0.02804381344951
  N   5.17912142816347     -1.16651731354538     -0.22350518731103
  N   3.82159398113937     -1.13710193894558     -0.31881059550163
  H   6.60420766986890      2.63050890755430      0.39587170414160
  H   4.49214792363643      4.28738813308842      0.44947985298471
  H   1.41749164051714      1.83581220455588      1.83714217292296
  H   -0.00459787505794      2.26139215295405      0.87025650629615
  H   1.35458854523533      5.77814109605209      1.89600487505761
  H   0.30970169235383      2.76306631241020     -3.25137188065160
  H   3.42111624973982     -2.04970833597407     -0.47447748956016
