26
Coordinates from ORCA-job 4379optt
  Br  1.06343535739076     -0.08835264431927      0.22445596461501
  C   2.94240316242780     -0.00429872185908      0.05888813747753
  C   3.65246446718958     -1.18842283536942     -0.07599171657355
  C   3.12419833719803     -2.59932168268864     -0.11853252847650
  C   4.38534544714947     -3.44865322541716      0.12790900328322
  C   5.56125584209290     -2.59471276030892     -0.38284425205555
  C   5.04061249378059     -1.19355156426362     -0.22357369718952
  C   5.70184112249850      0.01507513281752     -0.22025970475340
  N   7.09350046545728      0.23214096510173     -0.35968677061927
  C   7.24873308150281      1.48793963964320     -0.28328710126667
  C   6.00735395740046      2.31620970941844     -0.09402701246931
  C   4.99563789528235      1.21405753204022     -0.06569347901672
  C   3.62449496276232      1.21952942600715      0.07176789360994
  Br  2.74417547153476      2.87462903041659      0.28191683129446
  O   8.44313087483053      2.12415966296578     -0.42573741584923
  C   9.55927808631678      1.65690295319949      0.21173307556628
  O   9.58264359554769      0.82946993015158      1.05490681498844
  H   2.69070345090482     -2.79539316955668     -1.10443533622546
  H   2.33867820219022     -2.77331402092037      0.61590838783542
  H   4.33304824222182     -4.42618760328480     -0.34784982394761
  H   4.50081152819907     -3.60607183720940      1.20133464710021
  H   5.76702549042220     -2.79130907825076     -1.43911300035000
  H   6.48949795307577     -2.76098508764819      0.16163458061946
  H   5.86339245126728      3.02488556594311     -0.91340137984169
  H   6.05147047714972      2.89438814013673      0.83257940676957
  H   10.42186758420642      2.21218654325475     -0.17060152452506
