24
Coordinates from ORCA-job 4382optt
  Br  0.98352642288462      0.20767690448705      0.02246481784725
  C   2.86734540302229      0.09412733522795      0.02915474726483
  C   3.54770059922369     -1.10076147037430     -0.02975593981710
  C   2.97041656425157     -2.48958869129122     -0.11397244462444
  C   4.15416314182433     -3.38797412595541      0.28578859304727
  C   5.41097233805274     -2.61018051684864     -0.14413714266786
  C   4.96685131438637     -1.17520412279652     -0.04236788040352
  C   5.72415517852475     -0.02650994055433      0.01277613384425
  N   7.12587603271371      0.00276047823529      0.00229911102200
  C   7.74961390975708      1.10663758761064      0.06085369622137
  S   7.19771782806600      2.79219787989047      0.16573741799233
  C   5.47792980563249      2.49802750433310      0.15890067151792
  N   4.49526217298131      3.35846490640902      0.21226293971166
  N   3.36278364166619      2.59936256788237      0.17395935105405
  C   3.62905141840183      1.27025549835834      0.09478092705556
  C   5.01553735610514      1.17183741488859      0.08494472870207
  H   2.65314127802753     -2.68716879297002     -1.14308751470387
  H   2.09483341220769     -2.61818572646638      0.52179123393386
  H   4.09577755040750     -4.38106503303687     -0.15635349559052
  H   4.16027344290560     -3.50509940693572      1.37078653912386
  H   5.67943883076535     -2.84217140945190     -1.17933596991777
  H   6.28444826368300     -2.82446087020947      0.46973453112440
  H   8.83665375802318      1.08662323352516      0.05123241073134
  H   2.46553033648599      3.05139879604280      0.19954253753103
