24
Coordinates from ORCA-job 4388optt
  Br  1.10849748439066      0.16945822137325     -0.20405121062764
  C   2.97811850446153      0.04280177913765     -0.18853844172073
  C   3.65338507344535     -1.13766044158333     -0.25586456191817
  C   3.25404274735258     -2.49103330972203     -0.34919264083495
  C   4.41323010700220     -3.24742815602325     -0.36757475825428
  C   5.56847432892016     -2.40128184489295     -0.28971278080653
  C   5.12462918557122     -1.10671786582963     -0.21962142087552
  C   5.75742959746392      0.15654457144942     -0.15518391640800
  Br  7.63998826212454      0.26610119878712     -0.15266088822524
  C   5.02378035011492      1.30054926073789     -0.08929657987913
  N   5.49787889774414      2.62473301217655     -0.01432948952090
  C   5.81491392567259      3.19969415767909     -1.32649569125874
  C   6.19425039513617      4.60734533487349     -1.18197791926123
  N   6.50638681553184      5.70199110929941     -1.06204187546965
  N   3.64653874450868      1.21103383297622     -0.10167640043980
  C   4.46437071338373     -4.66719681846213     -0.45320870228909
  C   4.51614630083830     -5.86399053041156     -0.52560401766374
  H   2.24320154231614     -2.86193596614012     -0.39065987491010
  H   6.59250378529231     -2.73794910385350     -0.29256352583868
  H   6.30586019180101      2.68081089021124      0.59557887474497
  H   4.92681314951290      3.14719458947779     -1.95784969957180
  H   6.62477192848523      2.66958629005528     -1.83929153374260
  H   3.13937370906396      2.07502107578691      0.02986460451899
  H   4.56041425986586     -6.92467128710277     -0.59004754974741
