30
Coordinates from ORCA-job 4391optt
  Br  0.83630627031246     -0.68732731951909     -1.13626493001449
  C   2.62084125825259     -0.47578431802451     -0.50609133851637
  C   3.13890304078278      0.80824879982193     -0.48957053791266
  C   2.49669683121597      2.10610520056144     -0.90027533681486
  C   3.41717971120795      3.16241693884774     -0.26127059412869
  C   4.79534588984809      2.48473166303123     -0.15440082381758
  C   4.44379183249201      1.02172443783453     -0.05409176176550
  C   5.22139886095755     -0.04079373385955      0.36331765250184
  C   4.68735874471602     -1.32592266548666      0.33137526774074
  C   3.37482828407324     -1.57490914247127     -0.08554197455861
  C   2.81497037356740     -2.97321218857758     -0.01296853890071
  C   3.40936107738439     -3.94417325805100     -1.04886513477252
  C   4.72853965140833     -4.50790903890338     -0.57733921557188
  O   4.89023185626018     -5.68797274988032     -0.41965953648447
  C   5.87330762723112     -3.54170981545517     -0.29863893206874
  C   5.60826837387741     -2.44436417603616      0.72603700244407
  O   6.21300720320409     -2.41970608851625      1.76563358322637
  H   1.46084623711501      2.18371711588227     -0.57175061427720
  H   2.49118495078317      2.18192523182725     -1.99246316592121
  H   3.05223055958787      3.38891692221858      0.74169691775078
  H   3.44367050820924      4.09346679276077     -0.82440003265882
  H   5.38307957145253      2.83821689428512      0.69248763967298
  H   5.38809971978594      2.65725342350627     -1.05759886659240
  H   6.23504223026844      0.10250685964947      0.71782699226214
  H   1.73849250942668     -2.93969379364015     -0.15186002117246
  H   2.98275942958783     -3.37440703957306      0.99071297657719
  H   3.54993431148415     -3.42516697538762     -2.00110564256414
  H   2.74117159028723     -4.78855912259511     -1.20831389562728
  H   6.10890911498273     -3.04240906445488     -1.24496625378886
  H   6.72824238023752     -4.12220978979481      0.03834911575336
