25
Coordinates from ORCA-job 4395optt
  Br  1.10657983722054     -0.10155174921987     -0.18750564350263
  C   2.99796065319239      0.01598567297291     -0.13202521284612
  C   3.60582866495367      1.21577837004666      0.18872901225232
  C   2.98410918674899      2.53658004249472      0.54683013992425
  C   4.17677353066954      3.52617813088895      0.40212435972736
  C   5.43865469514185      2.67073500396143      0.63650641332136
  C   4.99556689937140      1.28873130469792      0.23238295275486
  C   5.77556553141891      0.18020073183139     -0.04527181022401
  C   5.14859156061163     -1.01701738476371     -0.37147024414767
  C   3.76350274420288     -1.10669677518914     -0.41504774944335
  C   4.15162037935973      4.06623544611099     -1.02813856914781
  O   5.03795248599048      3.91506397785032     -1.81496800518373
  C   4.05483514392978      4.68338972979597      1.34688206928614
  N   3.90940785890758      5.92753540251929      0.96161246683524
  S   3.82794856253337      6.82125418697481      2.30239822067121
  N   3.98214111109556      5.56477537008287      3.35429507340488
  N   4.09264850787981      4.47175586008032      2.70415126172303
  H   2.61987001831388      2.52608007274193      1.57747468525105
  H   2.14185807178224      2.80806845845294     -0.09398753212469
  H   5.71514591027619      2.68737465852191      1.69283793059268
  H   6.27558544527750      3.03982330727729      0.04492862469615
  H   6.85582104132710      0.24425966191134     -0.01664427287561
  H   5.74059952101719     -1.89302481671515     -0.60152415845404
  H   3.27789292124245     -2.03789270530225     -0.67144355390985
  H   3.22353971753523      4.60037804197611     -1.30212645858103
