25
Coordinates from ORCA-job 4397optt
  Br  1.15841640657078      0.08799290436679      0.00118392337576
  C   3.03542191384430      0.03164768787131      0.04570809377584
  C   3.72043296672866     -1.16572507785192      0.02156171114761
  C   3.16655115836396     -2.56165794140627     -0.04367143181241
  C   4.37432229743801     -3.43737650864882      0.34051594249638
  C   5.61564503736245     -2.61625100122788     -0.05563966718000
  C   5.12116061696611     -1.19727967199167      0.02450179746211
  C   5.85630979779363     -0.02648705931869      0.06239343694799
  C   7.28453728577360     -0.05886275817031      0.04742380055295
  C   8.48287153936058     -0.10345326374701      0.03175463835176
  C   5.15930215752507      1.19919028778914      0.10971484175567
  C   3.76940955230938      1.21997067583119      0.10046285627186
  O   3.11332449045672      2.39211957997118      0.14538228998135
  C   3.77554198529784      3.61275182902809      0.20266758916399
  O   3.10820394852989      4.59344179259995      0.24005789402287
  N   5.17102112812652      3.60883201988792      0.21190647854113
  C   5.79502898406429      2.49022523660726      0.16870927015963
  H   2.82655753968794     -2.76496080365871     -1.06415745261070
  H   2.30575858885062     -2.69727326103486      0.61033440435582
  H   4.34790291117718     -4.41710451888583     -0.13216321159603
  H   4.37516859514886     -3.58910015093304      1.42068303749693
  H   5.92790128990721     -2.83588455630682     -1.08123323702254
  H   6.47704921896090     -2.79690109436382      0.58668273854857
  H   9.54643965698604     -0.14169400674077      0.01548624550052
  H   6.88272093276940      2.52283966033358      0.17773401031291
