25
Coordinates from ORCA-job 4401optt
  Br  1.01363386062596     -0.12668749222061     -0.25151408021755
  C   2.89778290039930     -0.08286033745748     -0.20129754689173
  C   3.62959708619521     -1.21579753318661     -0.12019152358688
  C   3.22362130001145     -2.58560100642856     -0.03961484025379
  C   4.36313839696898     -3.33768236128897      0.03489739565705
  C   5.52230574754263     -2.49339675328306     -0.00107683217424
  C   5.10396891218021     -1.18964352799730     -0.09505913128311
  C   5.84261034106347      0.02614444129989     -0.15965458852004
  C   7.34370424809986     -0.05698769178904     -0.13202258846021
  C   7.95141015915165      0.15157494063961      1.23987937255714
  O   7.40032518352496      0.70538814214393      2.14694228659171
  C   5.24039424788906      1.24006072614059     -0.21732337619794
  S   3.52932882094563      1.50130967155426     -0.26618400177202
  C   6.01089013654842      2.51812351741015     -0.22071263395788
  C   6.21600980779703      3.28303689410503     -1.46225162227791
  O   5.27205321703847      3.69076986595940     -0.49084421420213
  H   2.20334956455994     -2.93233257143661     -0.03360831736598
  H   4.39441556326125     -4.41482789772399      0.11222991984975
  H   6.54197206932080     -2.84309621978340      0.04812056923195
  H   7.79613809091493      0.70545046171321     -0.77793993070285
  H   7.68553518042968     -1.01671333544905     -0.52172168266063
  H   8.98830979533456     -0.21919541610318      1.35129236398240
  H   6.73693475927975      2.62042868768988      0.58034813947681
  H   5.79126655139549      2.89833198697088     -2.38315410802289
  H   7.08530405952123      3.92420280852105     -1.55453902879905
