28
Coordinates from ORCA-job 4402optt
  Br  1.18296809641958      0.26087548124401     -0.33717604552587
  C   3.03023233170603      0.02919483073659     -0.17049989184991
  C   3.63339639159939     -1.15897528033569     -0.06818617296515
  C   3.09118760463754     -2.55927203927298     -0.05382360995962
  C   4.34173184580036     -3.40251990600899     -0.37359094139990
  C   5.53214837581633     -2.59127988906747      0.17199112620972
  C   5.06237492313496     -1.16430704910005      0.06838408052642
  C   5.78170257076081     -0.02067447612289      0.10200759942030
  C   7.27353956917580      0.03636562440700      0.27278000998089
  C   7.98649296390369      0.14165822056510     -1.07028963289218
  O   8.54531876443857     -0.80071272715022     -1.57956901760186
  N   7.91703575162981      1.38636100196061     -1.64639216750236
  C   8.48031481561145      1.67926313886075     -2.88586503273682
  N   8.43060228138000      2.78750482190565     -3.48653086765387
  C   5.08339795122585      1.24309259908748     -0.05236984662338
  O   5.59108268381209      2.33469559929865     -0.09522188641922
  O   3.70545658836968      1.18507892572195     -0.16447435045992
  H   2.28125890056221     -2.70584731493140     -0.76702703836414
  H   2.70074454224927     -2.79599592866854      0.93995768945275
  H   4.44258611918004     -3.49993343655080     -1.45509857938812
  H   4.28922080393374     -4.40431216374791      0.04735648611162
  H   6.46321874700919     -2.76436056423977     -0.36635327407267
  H   5.71181258945501     -2.82305322300370      1.22722741084766
  H   7.63674074181730     -0.87087774120820      0.74949995472780
  H   7.53039309629077      0.89860975966734      0.89093656793885
  H   7.36500846609078      2.09233391691720     -1.16959579826727
  H   9.00083895766796      0.83133365489652     -3.32096576318427
  H   7.90719352632170      3.48775416413977     -2.95911100834947
