24
Coordinates from ORCA-job 4404optt
  Br  1.03789542240700      0.09060706180389     -0.43122255282378
  C   2.90606759970870     -0.03753438609579     -0.27218267388168
  C   3.56549269807591     -1.20997646760375     -0.09381111113530
  C   3.16189345111963     -2.56328612518326      0.04691997070992
  C   4.31693186496026     -3.30627927497792      0.16851148607777
  C   5.46873397860383     -2.47027388365782      0.10716519887283
  C   5.03817252595047     -1.17036235997898     -0.05456295632253
  C   5.69326168243509      0.07024146800979     -0.19806292153774
  C   4.96099657607320      1.21530494826252     -0.30949955552139
  N   3.57517040683323      1.13646324138437     -0.34921783805417
  N   5.55530787719855      2.46088242315557     -0.44741424176259
  C   5.10874546944524      3.49811797041223      0.13822579163039
  C   4.07590434056335      3.59836671504120      1.16551437280727
  N   3.54073197252655      4.72888155555132      1.45126036345963
  N   4.00783530193693      5.77033146363440      0.75616998022471
  N   5.20171123964130      5.79834282250319      0.13606332142681
  N   5.76578987648998      4.72469810443510     -0.15039650687735
  H   2.14598733058897     -2.92354458326893      0.05425580907987
  H   4.34819910153788     -4.37953066878763      0.29192247626229
  H   6.49477015395659     -2.79728436875598      0.17271104979150
  H   6.77066802520305      0.15735118537634     -0.20393593114880
  H   3.05173456044672      1.96904537868877     -0.57522824422227
  H   3.76901437518045      2.73958906697147      1.74961422847149
  H   3.68498416911708      6.67684871307991      1.05520048447313
