31
Coordinates from ORCA-job 4410optt
  Br  1.13876620063202      0.21487215564392     -0.27979911179150
  C   2.99138623076249      0.00213155129092     -0.09864536023621
  C   3.58853707026364     -1.17280649692201      0.09785204802535
  C   3.06241736581241     -2.57456530218166      0.21063091735843
  C   4.30296806224947     -3.42480407907399     -0.13010688593842
  C   5.48381599942678     -2.58695341054273      0.42532537153370
  C   5.03175584555709     -1.16781855723876      0.20728511741388
  C   5.73073847082156     -0.02954191820991      0.10285808610061
  C   5.03847443583868      1.23627372150663     -0.10578664264098
  N   5.50924205413836      2.39926452362902     -0.22618871499787
  O   3.64977601290650      1.16250938668494     -0.18812628927753
  N   4.34656039175846     -3.64272302298420     -1.56859831083489
  C   5.45211127067351     -4.45854429984446     -2.03773651576570
  C   5.29058337177627     -4.76303159148299     -3.51887627356176
  C   6.43604483802638     -5.62057345542910     -4.06549935944313
  C   7.72544246531301     -4.93782162375691     -3.95552478271590
  N   8.71797391866476     -4.37456731104287     -3.85240287328292
  H   2.23581334976796     -2.78717892972645     -0.46557664539706
  H   2.72911694876155     -2.77521034167562      1.23233539231063
  H   4.25887444874984     -4.40582262642083      0.34492387222750
  H   6.44113864978617     -2.81408764473705     -0.04184730091410
  H   5.59087464835080     -2.76149987566092      1.50031955423077
  H   6.81030796724092      0.00350093276374      0.16278267336774
  H   6.52193187469682      2.37919609816250     -0.15544762787467
  H   4.32904665052378     -2.75177471705986     -2.05816080978248
  H   5.43663005167178     -5.39541201599215     -1.47108565443068
  H   6.43864229158584     -4.00361201499096     -1.87127820284327
  H   5.24320205127614     -3.82839128651577     -4.08306335902029
  H   4.34810726076760     -5.28736926311932     -3.67781728916425
  H   6.26957375977648     -5.86414917227901     -5.11511681846254
  H   6.50414604242286     -6.56348941279407     -3.51862820419244
