23
Coordinates from ORCA-job 4414optt
  Br  1.24211655889659      0.20739723429328      0.36566038446494
  C   3.08035112019141     -0.03466679409389      0.17753595173778
  C   3.68103922465975     -1.23659419806920      0.02765215539685
  C   3.18356344914710     -2.56798842952266     -0.03988314102666
  C   4.28903551500614     -3.37699022210586     -0.20409697451928
  C   5.49971692767234     -2.58855266870739     -0.24244919811491
  C   5.14138003882590     -1.28152120872586     -0.10502374753012
  C   5.83172926545373     -0.03288482825724     -0.06715681483420
  C   5.12212377697396      1.09297634997513      0.08494248575518
  O   3.75597400160230      1.10251702045880      0.20659160636706
  C   4.32673534317300     -4.83412954142974     -0.32807646592325
  O   5.35947086075416     -5.45806751082590     -0.41835040397387
  C   3.00453087154082     -5.64331042620217     -0.35867935121268
  O   1.90839736776757     -5.15658375018491     -0.25347653294844
  N   3.24164484058978     -6.98430916904079     -0.52471037450196
  C   2.23697752404296     -7.93516323543143     -0.60591250124390
  O   2.46268806647784     -9.10065573883952     -0.76737390775257
  H   2.15406550314839     -2.87361517150572      0.02245435510748
  H   6.49138687216890     -2.99468416167256     -0.36301779634993
  H   6.90663766931648      0.03552722381804     -0.15709162232653
  H   5.51365032807233      2.09563022546357      0.13068864745356
  H   4.20738062210084     -7.28160866102938     -0.60322709240394
  H   1.23440425241763     -7.50272233836457     -0.50599966162062
