24
Coordinates from ORCA-job 4419optt
  Br  1.25772151698083     -0.39629171576330      1.48211016168160
  C   2.93601569090984     -0.20641913598393      0.64757397713471
  C   3.63362756629801     -1.28320606774710      0.21687579002267
  C   3.33453006985638     -2.67777732949955      0.25261680992386
  C   4.38676236273257     -3.33284811722701     -0.33655451233768
  C   5.37871933259209     -2.39755807178522     -0.76491233280555
  C   4.94621297829933     -1.13516023364777     -0.43716200457508
  C   5.54850798235575      0.12532555796380     -0.62341230424566
  C   4.99016400907623      1.30285428069803     -0.23749698903313
  S   3.41761170748826      1.42631187324524      0.50217562959184
  C   5.66694121618660      2.59572114919146     -0.40347504503897
  C   7.00649970061089      2.73734564467947     -0.50141269749606
  C   7.56212239298970      4.05629343415053     -0.69631740097260
  N   8.76295257804296      4.45325574251811     -0.82407163144956
  N   6.55399792163066      5.02437181487851     -0.73199501455864
  N   5.25690390045208      4.84764684112890     -0.57787709182081
  N   4.79603658892757      3.68941190227652     -0.42298851310386
  H   2.43910279877815     -3.11302944623156      0.66560007881813
  H   4.45930498278097     -4.40328341857954     -0.46219640694695
  H   6.30842666950368     -2.64089198361977     -1.25649017964539
  H   6.51238578487047      0.16033322849294     -1.11946474774069
  H   7.68301739859636      1.89845872497830     -0.41650202667605
  H   9.41390915147851      3.67509942052957     -0.78511397348688
  H   6.83652569856201      5.98803590535336     -0.84850957523925
