22
Coordinates from ORCA-job 4420optt
  Br  0.91692500112757     -0.48637402113550      0.39548892030056
  C   2.77959662389905     -0.30630111058626      0.20508782510827
  C   3.59348771821473     -1.37945968996200      0.10327113025208
  C   3.30801261651388     -2.78088641732944      0.10953100706084
  C   4.50286795935559     -3.43687275600143     -0.02578831759315
  C   5.58031777234281     -2.49776163660136     -0.12053815164306
  C   5.05518749553905     -1.23325007416105     -0.04452123762597
  C   5.68350711113799      0.02951121193900     -0.07495452935137
  C   5.01314741698369      1.20690278092039      0.01862949719130
  S   3.28681989099724      1.32817400080197      0.18311587582633
  C   5.72796611756977      2.47715363986225     -0.01572820254452
  C   5.31140613810970      3.77785570737588      0.19887837129865
  N   6.44132071510195      4.51385273135359      0.03734377844846
  N   7.47298460341672      3.74570577443783     -0.25104120783403
  N   7.06302039811472      2.52677631094686     -0.28761109015017
  C   4.06734048031416      4.36748964011628      0.52931125301591
  N   3.07003649729353      4.86790800870521      0.79789204557434
  H   2.32711863923526     -3.21755926054787      0.20413486985497
  H   4.62181290894212     -4.51015853732423     -0.05777508973241
  H   6.62585926029108     -2.74193799186406     -0.23182838306812
  H   6.76107628404342      0.08364469956426     -0.17767946424412
  H   6.55318835145591      5.51358698948966      0.11178109985520
