23
Coordinates from ORCA-job 4421optt
  Br  0.81756319400906     -0.25257698475938      0.46534750444940
  C   2.66804569794338     -0.05743717787551      0.18138414755567
  C   3.31796302070981      1.12280967785337      0.04377461131596
  C   2.88260917838606      2.50300791390402      0.03544883731563
  C   4.01880457767093      3.27780749348525      0.03322075080519
  C   5.19236623366610      2.46941618263099      0.00539720923075
  C   4.80279093092725      1.16247414034012     -0.00446540971935
  C   5.59967394255677     -0.01735654122472     -0.03190228294387
  C   5.08204196908519     -1.26691221645729      0.02865202425943
  S   3.41486072244572     -1.60744094339737      0.18364915455762
  C   7.02624670378304      0.12966687461328     -0.11378875275376
  N   8.16378735933644      0.26213941901735     -0.17841835881682
  C   1.54548859423357      3.07065921054289     -0.01009579646055
  C   0.42273338126335      2.82153732638181     -0.73491856618336
  C   -0.51868504153111      3.83833453524749     -0.39289578332255
  C   0.10515295002479      4.63572165812650      0.50411236106662
  O   1.35660323988267      4.18872103932511      0.74332783527980
  H   4.00721304105681      4.35788801014668      0.03179797092345
  H   6.21219682308401      2.82184749633861     -0.01556164468683
  H   5.70692396402514     -2.14905884053465      0.00729781892941
  H   0.29232642725063      2.02241430511303     -1.44359019603585
  H   -1.51962602540825      3.96020746037169     -0.77002702841856
  H   -0.19408088440139      5.51612996081073      1.04525359365259
