28
Coordinates from ORCA-job 4426optt
  Br  1.18834763112019     -0.55195095397642      0.46757989903781
  C   3.06775360080626     -0.42786803518450      0.36680484705544
  C   3.83537542893804     -1.52690122696009      0.04677865539394
  C   3.42834291036514     -2.93317351782688     -0.28050859198515
  C   4.76086340398254     -3.71672596412948     -0.12433660102810
  C   5.87007913123137     -2.67410384274875     -0.38812356253113
  C   5.21668868022839     -1.37252679852929     -0.00318566047650
  C   5.77364809390452     -0.13654457770461      0.26791188571089
  N   5.02656186632821      0.92194528376720      0.58165702462091
  C   3.70960111555833      0.78091248752551      0.63012776132648
  C   4.89020974800948     -4.87419216208967     -1.09292699948924
  O   3.95820647164919     -5.42049742014221     -1.61366636084830
  C   4.81701775482532     -4.28019421303411      1.31262232687310
  N   5.49423352755576     -3.81100633148018      2.27635319675308
  N   3.97841186550093     -5.35851754940997      1.48803916115657
  C   3.70040840601035     -6.03554213732464      2.68455632787747
  N   4.17640246710558     -5.84995064117362      3.83280919235876
  H   3.05943116257101     -3.00284261131476     -1.30751924400541
  H   2.63614131451830     -3.30357114798393      0.36936804893623
  H   6.11596478999604     -2.66417753222238     -1.45508013068556
  H   6.79581563258624     -2.89000189812702      0.14562495771244
  H   6.84701898035535      0.01903521848063      0.24073510154478
  H   3.12707845582971      1.65657113240416      0.89225525055478
  H   5.92657422325826     -5.20844023468906     -1.29002678159854
  H   6.04130906085478     -3.00077099450296      2.00698613029430
  H   3.45882683680885     -5.67164280754869      0.68181829674374
  H   2.96184140177505     -6.82013841384221      2.52093652857376
  H   4.85084603832669     -5.08618311023199      3.83440934012342
