17
Coordinates from ORCA-job 442optt
  C   1.00195224720246      1.79234832053742     -1.36110731278523
  C   2.23155339138269      1.45879425435157     -0.57790537821468
  C   3.46991875703885      1.51919639502904     -1.04999120878065
  C   4.71319367250501      1.21466781794789     -0.25633919079943
  C   5.66992771535124      0.28533988262814     -0.98838587427253
  C   5.36489564779701      2.54395454149685      0.07762064397886
  O   6.44656901731252      2.88972442087676     -0.30458434453477
  H   0.32273794978358      0.93831383157787     -1.40190773865773
  H   1.25152938702044      2.08434949270334     -2.38057170391089
  H   0.45461004106134      2.61233354163369     -0.89147087075029
  H   2.08159741357740      1.14162766833981      0.45191136188813
  H   3.63731567252115      1.83208021943714     -2.07911742546781
  H   4.40317737932043      0.78377131002588      0.70268241712240
  H   5.96990949526108      0.72533829801912     -1.93970287197388
  H   5.19157338769973     -0.67406020313417     -1.18229734441023
  H   6.57464686401749      0.12145035771850     -0.40403530431364
  H   4.74089196114756      3.21476985081115      0.70120214588239
