27
Coordinates from ORCA-job 4430optt
  Br  0.97275082627659     -0.25998424521414     -0.77949558529032
  C   2.83204623467671     -0.20388302081019     -0.56785109650180
  C   3.54485557702613     -1.15382653681331      0.03521347668957
  C   3.15871941157917     -2.47004037647842      0.64640264238614
  C   4.47797148187793     -3.26318585318691      0.57101813146129
  C   5.58455719391378     -2.20256292399443      0.71101865201233
  C   4.97793689968924     -0.98562685991384      0.07789886937376
  C   5.55305907176173      0.11788993745198     -0.42881040198544
  N   6.94376360740893      0.34562535116020     -0.42997715298859
  C   7.72376268675059      0.25997295497192      0.68056163932171
  O   7.32952366563417     -0.05498102438073      1.77612148515086
  C   9.21057697141967      0.58916340250126      0.49300076461577
  C   9.57654493998915      1.05327423654778     -0.83778873848922
  N   9.79052884964350      1.41014457163979     -1.90545275135625
  C   4.72696405826583      1.17703193586453     -1.01890354783992
  N   5.07186630055823      2.29867568140573     -1.47826518680310
  O   3.37496631793285      0.89835925880970     -1.10151146171196
  H   2.33387282949679     -2.95283818720234      0.12489362196728
  H   2.85395447463589     -2.32404366342878      1.68660786418276
  H   4.55306991277477     -3.74190916964509     -0.40681813483313
  H   4.54614882412244     -4.03903986423069      1.33077462244314
  H   6.53375607015416     -2.48345101868766      0.25398330223470
  H   5.79061390916674     -1.97405003217914      1.75991734048416
  H   7.36401726731897      0.67187824949003     -1.29040948509063
  H   9.77918137978577     -0.30738018697947      0.74205321624570
  H   9.46135163283510      1.34848088420264      1.23386721467301
  H   6.06763960530511      2.45930649909960     -1.36904930035183
