27
Coordinates from ORCA-job 4436optt
  Br  0.93984900185233     -0.13007128314212     -0.31746644534945
  C   2.80036197188977     -0.12776981463144     -0.10675844177277
  C   3.56947451249547     -1.22425792121126     -0.07079278505615
  C   3.10728050363874     -2.65499278474880     -0.17185390815806
  C   4.39541126122945     -3.44213431636850     -0.45382573803261
  C   5.51716121581545     -2.62252104290425      0.20535390758654
  C   5.01163516863464     -1.21000707606319      0.07664844532091
  C   5.69315956631335     -0.05864143069313     -0.03753715796064
  N   5.03400606797983      1.14088023259553     -0.26547827105517
  S   3.50104901432405      1.41124980749372      0.33845146970965
  O   3.53830869830146      1.49218551387589      1.76265237716523
  O   2.98149041568663      2.51231668187684     -0.40366583627456
  N   7.09491287298817      0.03633575977539     -0.02742154055042
  C   7.86687329912963      0.86964300421996     -0.77827940980097
  C   9.16700942393388      0.60801979776474     -0.44347658759950
  C   9.08187371593292     -0.41184301189324      0.52761882610140
  N   7.83273152790551     -0.75343912934310      0.77164851027292
  H   2.33323048958018     -2.78601940043480     -0.92686313228327
  H   2.67056860323790     -2.93824296919597      0.79111670160857
  H   4.56419202046936     -3.48399716215133     -1.53100807082030
  H   4.34858480626872     -4.46418922010278     -0.08290317562641
  H   6.49039040314895     -2.76544632150755     -0.25886052974528
  H   5.62567372626215     -2.88143612483611      1.26158128062230
  H   5.58046000087321      1.99283832775608     -0.29134038843601
  H   7.43772859288292      1.54105168024982     -1.50356347637392
  H   10.04851959897791      1.07544820591329     -0.84488793579157
  H   9.88006352024730     -0.90296000229367      1.05991131229955
