22
Coordinates from ORCA-job 4441optt
  Br  1.15677821823920     -0.41907262544211      0.80418333688247
  C   2.94402031716794     -0.10734282758893      0.35054118233575
  C   3.52237492240365      1.09790068530039      0.12285296689508
  C   4.98539424392183      1.10783941256518     -0.04271373517892
  C   5.40159028651098      2.41314452222612     -0.08744574728298
  C   4.25285784683529      3.23655943603783      0.04897291117404
  C   3.10689945772110      2.47710661239448      0.15465651537947
  C   1.78840156229370      3.13086947100756      0.19706504588572
  O   1.57385425152998      4.15940038603408      0.78148740068358
  N   0.79778066798666      2.52022237603942     -0.58966260776800
  C   -0.51446087957273      2.88912586482424     -0.73047214472195
  O   -1.27089290783818      2.31031089169133     -1.46369020291339
  C   -1.00079816847998      4.03288315516490      0.06110882293214
  N   -1.53686438408162      4.88450925030271      0.60673723906885
  C   5.66924462348989     -0.13589741755421     -0.07844551989103
  C   4.96197274911798     -1.26219791238623      0.09234938002369
  O   3.62185979802587     -1.24844980446461      0.31809815029440
  H   6.41778115169966      2.75674684595265     -0.19907544000909
  H   4.24648697878525      4.31728461591343      0.05104579933282
  H   1.05122205977758      1.72057300746683     -1.15353778809975
  H   6.73798197989977     -0.19698268110666     -0.22613619384817
  H   5.34451522456612     -2.26953326437844      0.09208062882524
