26
Coordinates from ORCA-job 4443optt
  Br  1.01654380831230     -0.36211205835772     -0.17929892705837
  C   2.89150899012675     -0.20393161404870     -0.05953577112599
  C   3.64590469716382     -1.31086189498752      0.04719861074552
  C   3.15715805310815     -2.73480835679129      0.07612583748800
  C   4.40451510574484     -3.56293065400344     -0.22651546589844
  C   5.56391145567168     -2.73667605509985      0.34585891011744
  C   5.09099402971791     -1.31373418110533      0.16859812723408
  C   5.83494421885903     -0.20601785250852      0.12804752973888
  S   5.17662530722109      1.37914354454392     -0.04418140971435
  C   3.40797061172633      1.16952645098648     -0.08110418651246
  N   2.64198888723862      2.17628749120472     -0.14319459791675
  O   4.48119452662028     -3.66277293786507     -1.64075041895421
  C   5.47661524406056     -4.50671866683468     -2.12611129391196
  C   5.09842894556828     -4.98258883620300     -3.51332080924299
  O   5.88873214632577     -5.39210060924934     -4.30922304808741
  C   3.64886298851714     -4.96323719966778     -3.82518872965924
  N   2.53078915482132     -4.98722712167443     -4.07268166429476
  H   2.36508708080677     -2.92695395434077     -0.64568767521144
  H   2.76974511326918     -2.97173002359465      1.07129903032325
  H   4.35674730616011     -4.57039706125011      0.19800848988976
  H   6.51797253287465     -2.94267168743197     -0.13928625029088
  H   5.67769503658564     -2.96695890788768      1.40906342749647
  H   6.91533628532554     -0.22216243693026      0.20241373695973
  H   3.14394078806168      3.06182712922974     -0.15047534863839
  H   5.58078334601087     -5.40844767564891     -1.50452750891955
  H   6.45800434010163     -4.02874483048379     -2.20053059455595
