24
Coordinates from ORCA-job 4446optt
  Br  1.07139540634315      0.05678429746897     -0.38113760753450
  C   2.94391784485449     -0.02311441714153     -0.22895369628465
  C   3.61742611476594      1.16021851865958     -0.14440620079055
  C   3.19103797466392      2.51683248640727     -0.06469476173074
  C   4.30903530718402      3.27793100117442      0.13974464732499
  C   5.48654490916749      2.45658122303613      0.17508838021209
  C   5.06876798367847      1.16186740213646     -0.00542090020814
  N   5.74401362742488     -0.05463560211505     -0.04687020868087
  C   7.15062598163883     -0.06693985265963     -0.24752929903544
  N   7.89264359122548      0.86254927142415     -0.64918261504403
  N   7.72020338071413     -1.29784835897763      0.05330840398740
  C   6.97895922567720     -2.42126160047082      0.15912639420105
  N   5.70425812479097     -2.43806026650329      0.08301570071967
  C   5.03211779503469     -1.24337918083228     -0.03833171659490
  C   3.64292399150264     -1.25796157322162     -0.13993211452244
  C   2.98646354505004     -2.59283545589539     -0.13218958035898
  O   1.85502870075440     -2.80299642805890     -0.48186037310356
  H   2.16817715334083      2.84847977663678     -0.12169867186018
  H   4.32274140937517      4.34970513591594      0.27140651283093
  H   6.47808136145965      2.82291625657704      0.37976892719590
  H   7.38149641302997      1.70401951367764     -0.88475383266725
  H   8.72569973333135     -1.33034411557940     -0.02687395345640
  H   7.52605262822289     -3.34484800844748      0.31125281083396
  H   3.62938779676929     -3.40866002321135      0.22112375456664
