21
Coordinates from ORCA-job 4450optt
  Br  0.91415865248224      0.51014673146140      0.71477435922562
  C   2.77270275362493      0.39760148972512      0.43492605000331
  C   3.51900124293064      1.38807472374643     -0.08581079469700
  C   4.97645896941630      1.22042016827455     -0.31190847809838
  C   5.45682582098316      2.37603244140313     -0.85359651903051
  C   4.36643594313434      3.29603494850939     -0.97598136966074
  C   3.21183991555052      2.72118121114307     -0.53057262713867
  N   1.95447572683920      3.33972953819626     -0.45298039667570
  N   1.01068486490684      3.23302996954513     -1.45690542739879
  C   -0.05280288645459      3.67863343478775     -0.92866398996031
  O   0.07478772993478      4.06351847051653      0.36795626471714
  C   1.38746326451006      3.81042983033207      0.70993000991361
  N   1.94135207130981      3.96672398543540      1.82678279653671
  N   5.68631278484823      0.09273770303857     -0.01792357981850
  C   5.11630726533055     -0.92258187844029      0.49647657258933
  S   3.43023386338863     -1.11986396095113      0.90334313913330
  H   6.48355530576241      2.55722508468201     -1.12688759241569
  H   4.43503641654052      4.30575227401963     -1.35283713720478
  H   -1.01412911043497      3.78412252627329     -1.40123054551513
  H   1.29310931297718      4.32496082764840      2.51917166885542
  H   5.69319009241919     -1.81090951934672      0.73493759663976
