28
Coordinates from ORCA-job 4455optt
  Br  0.83457082022053      0.14470900752025      0.25519377417191
  C   2.72289561367666      0.00789037921715      0.09366132324325
  C   3.47111789564755      1.16146521029604      0.03189791098363
  C   3.07294014665978      2.60826494183178      0.04903493475957
  C   4.40959355015178      3.32651973523766      0.33572690380211
  C   5.50467220170932      2.38205069774611     -0.19142654606531
  C   4.85453732777366      1.02677710120982     -0.09993386645651
  N   5.49110298931308     -0.12875088044560     -0.16224944272666
  C   4.74129421357528     -1.22878413064149     -0.09244014304513
  C   3.35365657113924     -1.23505559905429      0.03598436264245
  C   2.59127327601215     -2.52956015056716      0.12520207220861
  C   2.07209359459710     -2.86335961155144      1.54924490802243
  N   2.19679419147359     -4.32372403393618      1.55024529740919
  C   3.11316579745765     -4.60876135125996      0.56053130917974
  N   3.39932005484917     -3.69332399001352     -0.27076166286444
  C   3.66788838736084     -5.94154898768032      0.48499224452104
  N   4.09480284090042     -7.00355878339736      0.47451247211683
  H   2.30249279006227      2.82482441855338      0.78891632874975
  H   2.66738901482915      2.88999234619686     -0.92764768797533
  H   4.52442042912377      3.44126676625287      1.41448217520874
  H   4.45369508279419      4.31848349700944     -0.10925079005467
  H   6.43524471477154      2.42806962963149      0.37189579348518
  H   5.74471073345576      2.59162425781027     -1.23792891003019
  H   5.25894203662495     -2.17829193536592     -0.15284996571021
  H   1.74205285910057     -2.48221521572996     -0.56531058773269
  H   1.04406289292791     -2.54819476175485      1.70440934417012
  H   2.71218903854690     -2.41018967466930      2.31221703900284
  H   2.26508093524516     -4.82261888244575      2.42465140898378
