22
Coordinates from ORCA-job 4459optt
  Br  1.06369537523451     -0.01522428199892     -0.02433009269819
  C   2.94736549399467     -0.05351969463173     -0.07957303473190
  C   3.61215352767507     -1.26088620151753     -0.03788463813392
  C   3.25414032709723     -2.61199048913611      0.04299523265740
  C   4.44035779077607     -3.34584504601060      0.05413100598906
  C   5.57329410332077     -2.50680758287375     -0.01728561327089
  C   5.08151424960535     -1.21536867533657     -0.07386572619456
  N   5.70467637497759     -0.01995586441077     -0.14246462545384
  C   5.02507642194729      1.14947296415441     -0.18269214253949
  C   3.63908295309843      1.15266758401794     -0.15555310514345
  C   5.79399537796246      2.39739702722280     -0.24521128692895
  N   5.12519699468662      3.50135077367042     -0.27606329781701
  O   5.78223230258842      4.66937054743304     -0.33128667372276
  N   7.16191467290165      4.75630064017125     -0.36227553728194
  N   7.84141336296237      3.73785710158901     -0.33349234528272
  C   7.26021644711080      2.43897331965201     -0.26698014685089
  O   7.99234823283860      1.48678618280315     -0.23243914151815
  H   2.24957340401521     -2.99833374525882      0.08723463542152
  H   4.49141792648571     -4.42386656466522      0.11169070791133
  H   6.60715878423296     -2.81108556904393     -0.02252913127692
  H   6.71941503681112      0.02181043368904     -0.15997646521529
  H   3.11376083967706      2.09389714048090     -0.18814857791844
