17
Coordinates from ORCA-job 445optt
  O   1.21859497490534      1.71426554479040     -0.26002762831028
  C   1.90546821546489      2.06207929818071      0.93065978723563
  C   3.18157348676094      2.79045362870288      0.53593341760813
  C   4.10632739387674      1.92222629850054     -0.25611161837926
  C   5.33209026964239      1.57436138895630      0.13282428899285
  C   6.21441855982587      0.71128918420582     -0.64066648196724
  C   7.43390421955698      0.35176585803156     -0.24902833465867
  H   0.43743873413784      1.20107579100006     -0.03974145592525
  H   2.15881211117799      1.16670089831947      1.50819307203803
  H   1.28701784746101      2.71444019985149      1.55606071316768
  H   3.68056362486986      3.14529782981904      1.44017035081572
  H   2.89462140623450      3.66683911737129     -0.05319934923651
  H   3.72076699413438      1.54499113743979     -1.19911801829677
  H   5.72089614149154      1.94516349816641      1.07883902635639
  H   5.82617384000880      0.35070550538018     -1.58894310977269
  H   7.84412578307936      0.69800431437790      0.69283423195146
  H   8.05720639737152     -0.29265949309387     -0.85367889161925
