26
Coordinates from ORCA-job 4463optt
  Br  1.09765137294110     -0.41417127554476     -0.60412250629239
  C   2.96745794342854     -0.20445651079560     -0.44446209214362
  C   3.50432148757144      0.99369797742680     -0.02726258410419
  C   2.85664432453605      2.28165945481122      0.38714017850758
  C   4.03848929121071      3.28391714453076      0.31950237503973
  C   5.30508311541510      2.43590208766765      0.57162022450536
  C   4.89376605306700      1.07539169611253      0.07246199223902
  N   5.73462600685347      0.09526148291065     -0.20188375022808
  C   5.18841200630907     -1.05232300203330     -0.60861568901076
  C   3.82303784255714     -1.25570011890936     -0.74814713887983
  C   3.88305098328926      4.44487612611880      1.26134208700702
  O   3.78937748614509      5.59374353477275      0.94482735024593
  O   3.85482713598886      4.00741617762673      2.55267756245289
  C   3.78029394191132      4.84606254055952      3.63559037196219
  N   3.73345296666023      6.09508375538751      3.70109343694099
  C   3.76526616830821      4.05192363025186      4.91985217321829
  O   3.78276657695530      2.85871635677244      4.95782010003158
  H   2.47422199278241      2.19373783324376      1.40803493615017
  H   2.02862138170685      2.57541134946854     -0.25686176340717
  H   4.08387635218833      3.71210684554576     -0.68094130849703
  H   5.53148070725771      2.37292914761544      1.63911476334453
  H   6.18432674046376      2.82007150569709      0.05798160799706
  H   5.87709730704927     -1.85704906631134     -0.83885830714073
  H   3.43834576985464     -2.20691735491394     -1.08637763481357
  H   3.74211517107126      6.54339403660288      2.78723612767983
  H   3.73638987447779      4.69431464538555      5.81423748719518
