22
Coordinates from ORCA-job 4471optt
  Br  1.04134634923484      0.07319141716307      0.21662260799893
  C   2.91947164965538     -0.04407859500390      0.15897360707857
  C   3.53132834211101     -1.24673580691451     -0.09723753374545
  C   3.11941118437458     -2.57049571287006     -0.36278124103031
  C   4.27956325141470     -3.31346862438294     -0.52362690196899
  C   5.45250178696879     -2.50458026076593     -0.37136139405653
  C   4.99049835508929     -1.24784366290598     -0.11397338664570
  N   5.60843075814367     -0.04608987432641      0.12065366642792
  C   4.89091615038986      1.05877438755099      0.35386971142978
  N   3.58378025347884      1.09683422884995      0.38170392963400
  C   4.33311714468563     -4.73922665267622     -0.80579125267267
  N   5.48473269348450     -5.32349675218516     -0.91738134386841
  C   5.49701226269360     -6.67357473148741     -1.17923421591999
  O   6.47096088355001     -7.36334920801550     -1.31405212902035
  N   4.21351706709247     -7.23476292914180     -1.28659472050218
  N   3.06647450328182     -6.59458359088203     -1.16789724478597
  N   3.08447334573941     -5.36002877321985     -0.93012350788039
  H   2.10792097998609     -2.93409991276623     -0.42622069245353
  H   6.46831679092667     -2.85446310739106     -0.45035916657291
  H   6.61692737803943      0.01113944501219      0.11907915156613
  H   5.44859111657363      1.96919954039885      0.53097833918494
  H   4.13470775308573     -8.22426082404004     -1.47724628219688
