24
Coordinates from ORCA-job 4474optt
  Br  1.05864983917764      0.06115740243256     -0.06141006161072
  C   2.94092366520609     -0.09304450945787     -0.11942884474965
  C   3.52161139224367     -1.32816820310048     -0.24889861861400
  C   3.08692711511645     -2.66090041641199     -0.38380183382277
  C   4.23382692446930     -3.44367989898160     -0.48435444060849
  C   5.41739882011236     -2.64063169112102     -0.42914081982034
  C   4.98387695503877     -1.35258197486758     -0.27952465701177
  N   5.62309339293140     -0.15521826173070     -0.16988584130216
  C   4.93095364061991      1.00187357606775     -0.05412712672354
  N   3.62234453864611      1.05383319773824     -0.02538105158669
  C   5.70766496425553      2.20114383999606      0.02935752146153
  C   6.38615983520729      3.18582803714142      0.09087224350935
  N   4.30785118447866     -4.82203739512610     -0.66997203057961
  C   3.41498430810855     -5.55496347249772     -0.15610719440016
  N   3.39959216356237     -6.91213704504217     -0.37510695951059
  C   2.47373998736309     -7.77344309732032      0.15811361508661
  O   2.46988905130242     -8.95657158501338     -0.04181102893521
  H   2.06231208501233     -2.98625205055805     -0.46111926040420
  H   6.42683805465019     -3.01181848824133     -0.49373716443112
  H   6.63249894771080     -0.10917265000585     -0.18471586485804
  H   6.97566511376538      4.07094696000150      0.14129322289244
  H   2.61423295136673     -5.18970384839306      0.49204105276477
  H   4.11822474214929     -7.30130515884129     -0.97324227904979
  H   1.72974032750562     -7.26215326666700      0.78908742230416
