25
Coordinates from ORCA-job 4477optt
  Br  0.96563290106252     -0.07539960378410     -0.11288475158395
  C   2.83967785866071      0.01596446131963     -0.02007269725584
  C   3.56205897913959     -1.13926030568028      0.07934367506397
  C   3.24890475444002     -2.52180881700448      0.14756726106182
  C   4.44445490925250     -3.20071853433961      0.23024172229019
  C   5.55601891301680     -2.30111045458300      0.22025540644212
  C   5.01968429805644     -1.04470971709258      0.12976388578337
  N   5.58573739356029      0.19823943646593      0.10148711858282
  C   4.86051935486615      1.32528967530464     -0.00125558951297
  N   5.60891610788900      2.50975260283818     -0.03822308449917
  C   6.71881751761984      2.74388024034399     -0.83172705083476
  C   7.16540900919557      3.97688910814382     -0.47109281835043
  N   6.37586765398421      4.50547195558616      0.52077508725008
  C   5.45726132634505      3.61620693141785      0.75528752696142
  C   3.47576634241421      1.29066929271506     -0.07455389111443
  C   2.74263290768411      2.49988389637220     -0.23544256069997
  C   2.12916831621325      3.52092094584107     -0.36904435142382
  H   2.25632888527186     -2.93963118517092      0.13234661356110
  H   4.54100153221971     -4.27462815910223      0.29662362961395
  H   6.59965492661663     -2.56518703935872      0.27898667194465
  H   6.58737820989046      0.29447520101033      0.20172594021579
  H   7.03566414157335      2.04097027657171     -1.58271860061421
  H   8.00266255422136      4.51918736656343     -0.87711772451306
  H   4.65909917444681      3.68533306234459      1.47626099302279
  H   1.58268203235948      4.42531936327731     -0.49253241139148
