23
Coordinates from ORCA-job 4483optt
  Br  1.06899264457616      0.14567813172577      0.07177500076114
  C   2.93014820689540     -0.01372088875475     -0.03586972230724
  C   3.58265068909657     -1.18361125658432     -0.02879825307448
  C   3.14720419424500     -2.61304195348685      0.04939390074536
  C   4.43745732306119     -3.39947339513492     -0.33859405828711
  C   5.61150560346463     -2.44338400750380     -0.00969422650622
  C   5.00828551242361     -1.06871519501341     -0.08427002997383
  N   5.68716836275774      0.02253000749709     -0.15407426669722
  C   4.99649639052692      1.21340111842700     -0.18769645472703
  O   5.45045937373032      2.30275309447076     -0.26604651655272
  O   3.56548640189567      1.14041940367767     -0.11172763799067
  C   4.43796889848759     -3.76447898083210     -1.77437464995087
  C   4.52947961028698     -4.90456543732659     -2.44311400839184
  O   4.49492672857174     -4.63564613263778     -3.79401158679434
  C   4.38152677016257     -3.29229140610267     -3.94282917943893
  O   4.32696695291569     -2.70444390145057     -4.96492476668501
  O   4.34074781513658     -2.73949037090671     -2.69681556575515
  H   2.31425236334270     -2.84051039127650     -0.61566496788665
  H   2.84018893878761     -2.87312889461786      1.06471408337017
  H   4.51152246047389     -4.32773425598998      0.22546812132406
  H   6.46826056605968     -2.54718304481524     -0.67320180662660
  H   5.96132051030899     -2.60265009380390      1.01354107194469
  H   4.62298368279272     -5.92971214956033     -2.13618448049951
