23
Coordinates from ORCA-job 4484optt
  Br  1.07191549788123      0.26852741247713     -0.20099302274539
  C   2.89313223236517     -0.11543313734566     -0.10044125743408
  C   3.42881799437979     -1.31963075662744     -0.31793256650286
  C   2.92912573789613     -2.62351774626527     -0.67404145045106
  C   4.02104730583053     -3.43857962082175     -0.74426068449218
  C   5.25046178499468     -2.69983989397540     -0.45503072775418
  C   4.87822045959463     -1.43062655247599     -0.19333742092641
  N   5.57765509112850     -0.28975608901544      0.14621378386932
  C   5.00527284747820      0.92883372341645      0.35781978920098
  O   5.59131664301051      1.92778800724525      0.64009840044588
  O   3.62925739141277      0.96666683212397      0.22768843840057
  N   4.05898773919263     -4.78397000199929     -1.09910060145487
  C   3.19132270679602     -5.54882745608364     -0.61886945238136
  O   3.14872229410014     -6.84109323500183     -1.00680447682278
  C   2.15266912406797     -7.62972964415779     -0.39606765528117
  C   0.79865856355964     -7.21093893495298     -0.79560656840673
  N   -0.24757394353872     -6.86257788171382     -1.10225115714818
  H   1.90625990290700     -2.87036191593017     -0.90694889595557
  H   6.24030664298502     -3.12647552497123     -0.46045595111915
  H   6.58187857528075     -0.30249336850891      0.23935493440003
  H   2.43883610643612     -5.25259002434788      0.12040553957854
  H   2.22464314821588     -7.59442182316040      0.69399095340010
  H   2.32206615402537     -8.65295236790787     -0.72342995041945
