25
Coordinates from ORCA-job 4486optt
  Br  0.75133721187678     -0.26414185824030      0.16600819238861
  C   2.61956767585536     -0.10561142633500     -0.00534639543830
  C   3.43207462565769     -1.17416130776761     -0.03753953144219
  C   3.17341444272761     -2.58126554712314      0.03284255668029
  C   4.38176639513182     -3.21475289960643     -0.04895187613984
  C   5.45123452737489     -2.26233205224271     -0.17399795831692
  C   4.90272460186516     -1.01224422183786     -0.16836483832227
  N   5.54701530501842      0.17917117179446     -0.26407359461806
  C   4.92793138280522      1.29939398967400     -0.24841283072737
  S   3.17754791859294      1.51710485673030     -0.10690792190756
  C   5.64782296452841      2.57417887457724     -0.31851620137150
  C   6.95002984286500      2.72911844943461     -0.06329497069846
  C   7.39338447469463      4.16204123943666     -0.19957925696570
  C   6.10366834090598      4.89772676368311     -0.51287839300643
  N   5.10222147071633      4.81136637542267      0.54802934367855
  C   5.01143301749600      3.89701073775640     -0.60118158541435
  H   2.19922278032437     -3.03168296062120      0.13136262584873
  H   4.52089102788604     -4.28591299553538     -0.02408691004606
  H   6.50350920341853     -2.48303643830166     -0.25657973135210
  H   7.60219221802891      1.92327781535062      0.24408416800131
  H   8.12892386070461      4.27700058138275     -1.00030966076083
  H   7.85107909226525      4.52989483402762      0.72201221214957
  H   6.11273303949783      5.77308509150805     -1.14725142111516
  H   4.42985705080344      5.56510233257079      0.44450329399005
  H   4.18741752895871      3.99566859426199     -1.29556931509403
