21
Coordinates from ORCA-job 4493optt
  Br  1.06626112050192      0.07354076839187     -0.81403563248223
  C   2.85390738615485     -0.05375525187693     -0.24905282209873
  C   3.53413731084781     -1.22398565347610     -0.23440693376392
  C   3.18022620838549     -2.54675130495960     -0.57935218468430
  C   4.29047106185485     -3.34165467056223     -0.36156068120907
  C   5.38151800134525     -2.55211314012768      0.12422748503587
  C   4.94048738154404     -1.25823228722156      0.21107163290260
  N   5.66174146069219     -0.18747048665749      0.64010406087676
  N   5.20140815056545      0.96971463375461      0.70474992710483
  S   3.60275578315568      1.38573022257247      0.25555095256548
  C   4.31075265421931     -4.77968452402026     -0.59515719518880
  N   3.22105383301987     -5.40967005787291     -1.00667654180791
  N   3.56854263547151     -6.69126838544723     -1.11520760231044
  C   4.84520302065604     -6.93074098868482     -0.78827037658137
  C   5.37894374249879     -5.70799749634788     -0.43922311130861
  C   6.71442058405474     -5.47380712845446     -0.02071558163433
  N   7.79512473823883     -5.28734762224240      0.31878169371872
  H   2.22134196362214     -2.87657918854800     -0.94434981216289
  H   6.37123829849775     -2.89409620002582      0.38345114031709
  H   2.87902745744242     -7.36015051117374     -1.41526952754645
  H   5.28443720723101     -7.91268072701979     -0.82165888974232
