21
Coordinates from ORCA-job 4495optt
  Br  0.96566551410656      0.14553353914874     -0.01420817182248
  C   2.84507669228889      0.06139276143460     -0.01318052720598
  C   3.56697077408255      1.18897999367469     -0.01345369352071
  C   3.26468026576900      2.60712324836298     -0.01429035631068
  C   4.45013736315772      3.25926790466787     -0.01407409703052
  C   5.57146777273121      2.31327748473263     -0.01313483689261
  C   5.02397909320564      1.08837433955249     -0.01277620160606
  O   5.65972941141402     -0.11098228455820     -0.01205161918249
  C   4.96665930977742     -1.25225142906022     -0.01175750168140
  C   5.73519898185414     -2.39292701937651     -0.01107749963673
  C   7.15801098651768     -2.25780656051460     -0.01084523266020
  N   8.29955888634463     -2.14659218764186     -0.01006174793817
  C   5.23918668936332     -3.75578417128492     -0.01057498572906
  O   5.91072261373083     -4.74982633215404     -0.01015377706954
  S   3.45349996914031     -3.97667755222415     -0.01051328665509
  C   2.82641763084595     -2.40535855541679     -0.01158880324098
  C   3.51621131255954     -1.23490263257057     -0.01217422879604
  H   2.27381688913123      3.02953297100742     -0.01491109104739
  H   4.57532141719661      4.33176914476314     -0.01452739815302
  H   6.62087695335533      2.55804891332196     -0.01284845616342
  H   1.74381147342739     -2.37919157586464     -0.01179648765743
