28
Coordinates from ORCA-job 4496optt
  Br  0.90430881692739      0.22465039779101      0.46342417293418
  C   2.76328720401615      0.02602928275667      0.26427198973078
  C   3.35059444653613     -1.19287424694996      0.29866936712309
  C   2.93456996822270     -2.54956084999293      0.46129816425726
  C   4.06487726176796     -3.31783407800805      0.39869600055625
  C   5.24484831189682     -2.50859380697513      0.19493646082221
  C   4.80390956702368     -1.22860197767924      0.13620852763682
  O   5.51878451754667     -0.09479366041422     -0.04152494806384
  C   4.89615890431193      1.09498615555956     -0.06661754477131
  C   3.55234724175751      1.19888488774765      0.07724893120086
  C   5.88189506591102      2.20113948032802     -0.25114264907856
  C   5.33764912257865      3.62530911092298     -0.52543020480522
  C   6.11013746239511      3.96500545670353     -1.80625576630062
  O   5.50696130713545      3.27779012238100     -2.88850750509605
  C   5.95454876351897      1.92298293573908     -2.75217110954448
  C   6.80625935023577      2.01105404663843     -1.48274788649339
  O   7.34953111085420      3.32029223435044     -1.62495290706529
  H   1.91939604704637     -2.88046796759163      0.60464978545681
  H   4.08747134073341     -4.39415386587614      0.48912327310320
  H   6.26115173062191     -2.85585022655476      0.11183028444941
  H   3.08017835793343      2.16677462637453      0.06128491283936
  H   6.52483234717613      2.21238657235494      0.63218528103926
  H   5.58191329585005      4.30994292674109      0.28433659398296
  H   4.26862219569587      3.66554843849551     -0.71687817140630
  H   6.23991467375039      5.01351676775392     -2.05424856567363
  H   6.55073266055639      1.64799214093983     -3.62247113456802
  H   5.10127423636592      1.24994720119475     -2.65722172991489
  H   7.58784469163400      1.26749789526911     -1.37299362235082
