25
Coordinates from ORCA-job 4498optt
  Br  0.91572473248260      0.12329595005184      0.00568597217918
  C   2.78083566642178      0.03100487149613     -0.08258089826743
  C   3.42172530930798     -1.16042647669469     -0.20192042890448
  C   3.02971326937100     -2.52576581829270     -0.30789972816857
  C   4.18227836983178     -3.26648635492049     -0.40092772316844
  C   5.35415046374790     -2.41948468199632     -0.35190943139192
  C   4.88109919840292     -1.15334397806568     -0.24142117733680
  O   5.57506116514849      0.00266867748244     -0.19175420767799
  C   4.91345674723483      1.14503034631717     -0.09270836562476
  C   3.55461522025947      1.24129388392658     -0.03113294648311
  C   2.96220462029775      2.53407401766012      0.06789297865618
  C   2.46962648242198      3.62306780668591      0.15010150634364
  C   4.22219192044687     -4.74229778940169     -0.54481926449154
  N   3.40434633347736     -5.42894378925337     -1.23918756288804
  N   5.25824356629653     -5.33993574782069      0.14509929218564
  C   5.58542284509065     -6.69855085738916      0.18115822419164
  N   5.04103689932899     -7.66252430675832     -0.41657890422063
  H   2.01833515487412     -2.89822921284027     -0.28142364649852
  H   6.38229655117617     -2.72841993012474     -0.44900713293412
  H   5.56310997270847      2.00715397872121     -0.06754570918947
  H   2.02583718329411      4.58738356151320      0.22360987642924
  H   2.74198753065815     -4.81517196785871     -1.70448476643703
  H   5.79427606376432     -4.73821738393194      0.74778630165925
  H   6.44091074462756     -6.87610729143923      0.83350236501738
  H   4.25151398932816     -7.34406750706655     -0.97753462297930
