22
Coordinates from ORCA-job 4512optt
  Br  4.04483334767635     -0.51229062335895      3.04326167151586
  C   4.55111990962027     -0.59245603823681      1.22589353175411
  C   4.18322568884579     -1.70426990518260      0.52646469365797
  C   3.49266136544186     -2.88328932694880      0.92811930161528
  C   3.39930675822966     -3.70181454026763     -0.16782106566085
  C   4.01246172547107     -3.09331369194805     -1.31000436351478
  C   4.49268007152818     -1.88036365350329     -0.90515888122072
  S   5.30030085257467     -0.69452926593929     -1.81628915031548
  C   5.61797834750945      0.51583509358043     -0.67393324901713
  C   5.27477415664971      0.50354691635160      0.65151966949304
  S   5.54706059597806      1.93628452716172      1.67083139144171
  C   7.21439095669783      2.49747893159350      1.44111952071477
  O   7.62997857925527      3.34658098313409      2.17749388149857
  C   8.09505974785950      1.98238961341555      0.33426703580685
  N   7.73985811672034      1.67449162371909     -0.83195088791052
  C   6.40197897051123      1.64353745730157     -1.26166375753618
  N   5.91193975940574      2.36680174900378     -2.16789691691324
  H   3.12349435416710     -3.07587013656575      1.92148786566825
  H   2.93075878219648     -4.67507705761671     -0.17817473349639
  H   4.08066625138469     -3.51545671942812     -2.29974258748448
  H   9.15387328135996      1.97827322468997      0.58932604638667
  H   6.59659838091675      3.04551083904467     -2.50414901648331
