23
Coordinates from ORCA-job 4515optt
  Br  1.06811817980236      0.04338494290930     -0.23008372486567
  C   2.94545385259969     -0.02230278911979     -0.11488935808731
  C   3.58622807555543     -1.22780989689602     -0.21556652879546
  C   3.09596272990914     -2.54406650834765     -0.39552501720317
  C   4.18987807349041     -3.37899331376821     -0.45375016344662
  C   5.40997855537731     -2.64049125939757     -0.31312010946437
  C   5.05605329070358     -1.32953523590401     -0.16092318280486
  S   6.07117721049632      0.02557340338723      0.06488893220716
  C   4.96871023231156      1.30305089941951      0.16240587914515
  C   3.61374891599109      1.20881806947093      0.07182196894567
  C   4.09943520972385     -4.82503885454907     -0.63173602677040
  N   2.98796751823589     -5.44354814082463     -0.68974259237824
  C   2.96133350896165     -6.84198736456841     -0.85035658586559
  O   1.91996240175401     -7.44722221250573     -0.89214774988769
  C   4.27488387708064     -7.48976156051394     -0.95681123269263
  C   5.37348559153992     -6.74316645470373     -0.88507523167883
  O   5.32830398088724     -5.40211624622199     -0.71870733947598
  H   2.06373550514332     -2.84298792885623     -0.47383501993987
  H   6.40582636803478     -3.05152084843850     -0.32205220591471
  H   5.44206864976166      2.26495695145226      0.30876866907561
  H   3.02492970829906      2.11212223104186      0.14502852317063
  H   4.33116168697671     -8.55926980400368     -1.08928763591159
  H   6.38959687736435     -7.10508807906189     -0.94930426736121
