22
Coordinates from ORCA-job 4518optt
  Br  1.38556570627610      0.30165382737159     -0.46229262914318
  C   3.24788914595770      0.17776676291645     -0.25151357269301
  C   3.81981483226237     -1.04714760870504     -0.06621198602353
  C   3.26700767940400     -2.34861726959398     -0.00051603924809
  C   4.30670476893041     -3.22578695121083      0.20630218846987
  C   5.55541241713470     -2.53516197912593      0.28293297113631
  C   5.28305801751541     -1.20536623019767      0.11728385355942
  S   6.36744483497188      0.09595803309887      0.11053465788337
  C   5.35156321311590      1.45533521840676     -0.12351448594081
  C   6.07473332608167      2.75287258770179     -0.13910453572867
  O   5.57032500224087      3.83519099231848     -0.04885267748731
  C   7.55278990153649      2.66367488469026     -0.26499954656978
  N   8.69337798935964      2.62300061490933     -0.36240594011755
  C   3.98642718053124      1.39664877004090     -0.28894027278919
  O   3.29186533231506      2.53648213658391     -0.56841389230343
  C   2.86436679172883      3.30616572277584      0.49511496389706
  N   2.14783795850889      4.31370197216117      0.36657607688621
  H   2.22065215511871     -2.58505378856712     -0.09780822964781
  H   4.20322873661771     -4.29737967863550      0.29865513293070
  H   6.52420953946435     -2.98171353237201      0.43836048503639
  H   3.21217800205410      2.94540584830807      1.46155025338431
  H   1.92754746887389      4.50036966712463     -0.61173677549129
