25
Coordinates from ORCA-job 4520optt
  Br  1.08727970518976     -0.12355845374319      0.16482174589789
  C   2.95590719699974     -0.03559067764580     -0.07695308139204
  C   3.64877431635484     -1.20432508987628      0.05103354158025
  C   3.20860783518468     -2.53983437740450      0.31418915208938
  C   4.30693947035255     -3.35285505614827      0.27160750826176
  C   5.48968322702723     -2.58765059358881     -0.01176132844425
  C   5.09921806270946     -1.28682114440474     -0.14203231573385
  S   6.05729063025879      0.10669520909688     -0.38561071000232
  C   4.91510324420099      1.38544970162652     -0.55205741429589
  N   5.51351769494580      2.60742020050795     -0.85832580673815
  C   5.55768586827127      3.65007463557142      0.17184941419683
  C   6.52193238961439      3.31935330581198      1.28318139213177
  C   7.91296705755023      3.77908650994567      1.23182855725941
  O   6.95457407981936      4.41618132382290      2.05914094651474
  C   3.56001720481635      1.21925741832349     -0.40462719020108
  Br  2.46167298206919      2.71988787369307     -0.76201365341211
  H   2.18613449276078     -2.82920285764751      0.48963380679960
  H   4.29848561739623     -4.42180355309830      0.42619694765978
  H   6.49498039173748     -2.97042784273828     -0.08767940118559
  H   6.42375177626978      2.48164207042019     -1.28405046613569
  H   4.55709619868207      3.79299528935852      0.57518270937033
  H   5.85933865811213      4.58632366358828     -0.29969701265963
  H   6.29950008563047      2.42219201519053      1.85550724946665
  H   8.24293714304205      4.36564335396614      0.37958995931320
  H   8.68360467100431      3.22886707537210      1.75904544965903
