27
Coordinates from ORCA-job 4523optt
  Br  1.14967104044793      0.19030655358041     -0.39767725347881
  C   3.03546369230441      0.20951195757418     -0.19609824484776
  C   3.64060238711834     -0.96852894296793      0.05923118733876
  C   3.08797338397871     -2.29305188540861      0.25665904346543
  C   4.12569796832721     -3.12852061694810      0.50746728227015
  C   5.37738159012345     -2.39367690834787      0.47298489747070
  C   5.08307188992448     -1.09853116063901      0.20336603843303
  S   6.15006690643706      0.24265871291175     -0.00872161671104
  C   5.07067606038490      1.58862848226773     -0.34115178051639
  O   5.57690323318948      2.65771973573996     -0.55537056502888
  N   3.66675836728039      1.42269815873328     -0.35554353306294
  C   2.91199763984413      2.68430146137825     -0.45598949156678
  C   2.43211630944088      3.16159030630398      0.90043620836635
  O   3.56032077451709      3.39887583749268      1.70172073776808
  C   3.24602312769165      3.81470469004140      3.00171403692213
  C   4.54152050874931      4.06495558362745      3.73930966449719
  O   4.57893575630167      4.50270479172654      4.85198706676474
  H   2.03977854770161     -2.53918699872670      0.22181741011892
  H   4.04684853014265     -4.18669640390402      0.70665466549081
  H   6.36069133210756     -2.81094901180477      0.62504351981194
  H   2.07465779062907      2.55211134078625     -1.13439056661447
  H   3.59419303347239      3.41678557177281     -0.87500726889994
  H   1.77922429448856      2.41842729772421      1.37413009733739
  H   1.85190741429752      4.08357330371789      0.76450021545095
  H   2.67472992058936      3.05009151279181      3.54515739050109
  H   2.65553526720230      4.73978326338548      3.00369419001590
  H   5.45425323330784      3.80971336719091      3.16907666870343
