23
Coordinates from ORCA-job 4527optt
  Br  1.28228016619036      0.06401696544267      0.90768132797640
  C   3.11079147303899      0.13735219830282      0.50836612820724
  C   3.76293206066459      1.29451928475196      0.17148950400711
  C   5.21026472487991      1.23123141145443     -0.02442765396044
  C   5.70189765163225      2.49470462732414     -0.27639117981262
  C   4.59295063494485      3.36960761379762     -0.25839637781632
  C   3.42691704241425      2.67444429075235     -0.00330177036854
  S   1.89386858356516      3.45452883679975     -0.11659616670798
  O   2.11595702602636      4.84969387098811     -0.39129603196754
  O   0.98476908391572      2.70094147209326     -0.93429125081553
  C   1.19517000446671      3.44204418088297      1.58194575711683
  O   1.82694870460263      3.16056489830872      2.54419725263203
  N   5.84909089909752      0.01093554060841      0.06324969563184
  C   7.24548771133662     -0.09280555480658     -0.16748166906145
  O   7.82711646040409     -1.13079062479080     -0.13740104079894
  C   5.15315472165421     -1.12308877818271      0.36107797043273
  C   3.81888535268389     -1.08739681866903      0.59404623860909
  H   6.71901839818802      2.79440657939826     -0.46199529802733
  H   4.62504728220490      4.43332963877714     -0.44070584455452
  H   0.13543290451758      3.75684328149888      1.58199430628438
  H   7.71005384835339      0.87620690475328     -0.37297797441892
  H   5.74852759849459     -2.02281214116915      0.39784047143533
  H   3.29543766672335     -1.99647767831650      0.84537360597714
