26
Coordinates from ORCA-job 4531optt
  Br  1.13663673412929     -0.20803853980047     -0.76313114217827
  C   2.91060252679744     -0.03086134522163     -0.14508355454195
  C   3.56237225318620     -1.03491424294943      0.48307436899844
  C   3.01858625915639     -2.44967528211242      0.67625484204986
  C   3.58721624989669     -3.58329384511535     -0.24685363877461
  C   5.04043077168937     -4.10339407038118     -0.02801282982190
  C   5.86028894084898     -2.83735651267372     -0.00767083288083
  C   5.62441687962400     -2.07973733376518      1.26138238052198
  C   7.00805208414756     -2.22189300157688      0.76030709942520
  S   7.45562630870456     -0.54194735100955      0.27925592579923
  O   7.83411570883844     -0.42733653209370     -1.09743366147170
  O   8.30286474875041     -0.02320361941521      1.30779175076731
  C   5.77033717462730      0.10331617316411      0.39500273334408
  S   5.26898775086132      1.49342345091618     -0.46768694405260
  C   3.48094125854327      1.30137267305325     -0.46373932456123
  O   2.83859617694087      2.24930860639621     -0.81555935475033
  C   4.94792127414677     -0.83927030094816      0.87181033193991
  H   1.94590939971070     -2.42422562281595      0.50259608225971
  H   3.15335002036411     -2.73263717898406      1.72292264421511
  H   3.50504691230143     -3.23735488864573     -1.28076982052382
  H   2.89999316943364     -4.42571225782424     -0.15251216256461
  H   5.29621479679900     -4.78705441782677     -0.83853906447989
  H   5.12475844079769     -4.64976399584924      0.91289561310022
  H   5.65303536113969     -2.25383041102658     -0.90029714796642
  H   5.30505295069924     -2.64359462521785      2.12505668533775
  H   7.78564584786557     -2.73332552827642      1.30893902080937
