26
Coordinates from ORCA-job 4532optt
  Br  13.22611033514807      1.53864619495177      1.63298810686864
  C   11.41250532408886      1.22511329355299      1.18644930059207
  C   10.39746392806701      1.56860871885012      2.00938140640677
  C   10.61677700513586      2.35678898217043      3.23825550043935
  C   9.76219533179403      3.23408191119180      3.77568702629827
  C   8.36057251380684      3.52312223089771      3.28225575882400
  C   7.52742536635111      2.26673652108577      3.46932411322207
  C   6.62611928983578      1.55060776244659      2.49496519780421
  C   6.76903615889152      1.91278424801747      1.06636644027245
  C   7.17980256149400      0.95059051495738      0.18077898147954
  C   8.63451676482098      1.01045379021921      0.30075088443968
  C   9.56754989651922      0.71131329164733     -0.78826920907275
  N   9.27353501001551      0.50248386448823     -2.00096810284646
  S   11.28671649311619      0.50516524366142     -0.38255946369759
  C   9.02511427041387      1.24087954381361      1.61385802278326
  C   8.05701733585091      1.05594162562264      2.76683491163818
  H   11.59194415574647      2.25692645839196      3.69717125145749
  H   10.09402545951731      3.76845063564027      4.65859287211984
  H   8.40417825140317      3.80908706698986      2.23072953215808
  H   7.93094674120483      4.36385301669170      3.82519469181954
  H   7.25506240740720      2.08848144341167      4.50316567471099
  H   5.79879908440263      0.97858648724060      2.89371466206912
  H   7.24169724752789      2.87819590631686      0.92847255816642
  H   6.70113417243601     -0.02430928417593      0.13932080776226
  H   8.26531964945407      0.60775139686109     -2.13132674716390
  H   8.26543524555053      0.17465913505744      3.36486582144845
