30
Coordinates from ORCA-job 4533optt
  Br  0.76288340684097      0.08535186104843      0.98980319288389
  C   2.63939114476411     -0.14247988065846      0.83526514597169
  C   3.41800247604991      0.94989073809411      0.55946728250532
  C   4.84552702597485      0.71981474893332      0.48156937031102
  C   6.02763881381520      1.77846304054602      0.31618783405953
  C   6.18003949068431      3.01125051703111     -0.71205042783976
  C   4.83621304123403      3.73664106513130     -0.54409157372527
  C   3.89369424020285      2.65538419704668     -0.93177583492543
  C   3.08354756145844      2.42989538529891      0.35497868735199
  C   2.00825321000145      3.52729572457387     -0.01430467110066
  C   2.86072098680575      4.88820792002196     -0.29868586260504
  O   4.13973703477844      4.90728223906798     -1.02523673327275
  C   3.55227956953231      2.92276686531077      1.67399795186064
  C   3.75470371322958      3.24101648184788      2.81282270260156
  N   5.30363119323112     -0.50516773938654      0.66799643717570
  C   4.42715667611968     -1.48465574608671      0.91193216042769
  N   3.11831025669571     -1.36687065740487      1.00332406168668
  H   6.89524097412257      1.13808210161616      0.17415766042810
  H   6.12248719412084      2.20873635485912      1.31748824818041
  H   6.35426268809044      2.64249397702111     -1.72337730390420
  H   7.05602509998548      3.57126575766343     -0.38254574516347
  H   4.85438666435924      3.90943752425091      0.52735963699252
  H   4.36192634367616      1.76868189704568     -1.32883861505625
  H   3.24688614757375      3.00433934018773     -1.72820219469784
  H   1.33678635228399      3.77190795816175      0.80923125364121
  H   1.42125035796334      3.23254973406123     -0.88087536713292
  H   3.05307547006699      5.31904625747363      0.68527696008587
  H   2.21395262858575      5.56032430503861     -0.85810539100628
  H   3.95844810939644      3.52802381933985      3.81686331312892
  H   4.83954212835623     -2.47797578713501      1.04536782113711
