30
Coordinates from ORCA-job 4535optt
  Br  1.48069708870737      0.94436120907622      2.53154261842090
  C   2.32660920311514      0.67150214983150      0.85192319279439
  C   3.19710537752142      1.58138651319829      0.37083261978797
  C   3.15633415980057      3.05023942164842      0.66982074265729
  C   2.47129514453548      3.72179341824647     -0.54656047029313
  C   0.93351876828119      3.79377354031355     -0.57039661996947
  C   0.06834454759428      2.64228794538976     -0.08097976973894
  C   -1.19936685073051      2.34733927152423     -0.82613754602235
  C   -0.11498129985094      1.31048892645634     -0.76542114959502
  C   -0.47125819523663      0.07565299049884      0.05078473694420
  N   0.59219453483904     -0.92544812631621      0.29155812709352
  C   1.91751478442356     -0.51736436586883      0.12421673417369
  C   2.75235180189948     -1.09361018972984     -0.76014937557038
  S   4.30258222837049     -0.47542941928218     -1.18787076272686
  C   4.20062979532514      1.21485491347845     -0.65438632128973
  O   5.03661973914277      1.98980937502149     -1.05520320827205
  H   4.16961188678164      3.43809143835849      0.76238093196486
  H   2.61443835529344      3.25513483489703      1.59080331614900
  H   2.82539444227042      3.22217460227819     -1.44922852841124
  H   2.83972060151593      4.74662212385339     -0.62269721383837
  H   0.65058688103705      4.02321247622334     -1.60148388803218
  H   0.62005899698720      4.66201707313453      0.01676954416796
  H   -0.02821980359483      2.59169684840818      0.99580485688988
  H   -1.35533133201189      2.86486117275428     -1.76293384106593
  H   -2.10219859954457      2.15151956359213     -0.26171330998470
  H   0.45032303658970      1.13482794023662     -1.67521867861493
  H   -1.27557700920142     -0.45693014600268     -0.46003935646499
  H   -0.87823850986471      0.41210648108969      1.00853810854761
  H   0.41508581272275     -1.77956643281395     -0.21458888646465
  H   2.43615441328141     -1.94940554949578     -1.34296660323636
