27
Coordinates from ORCA-job 4541optt
  Br  1.05587502876749      0.44586285304979     -0.45691565864564
  C   2.85504090387028      0.25548510749703      0.13227280087517
  C   3.49775258456433     -0.94656926254732      0.13861579487415
  C   2.70993404569771     -2.21463311014811     -0.13472113480373
  C   3.20217602371096     -3.13087691749262     -1.22584149806408
  C   4.28765595536527     -3.87065717596040     -1.05884149001425
  C   5.12865461165345     -3.68214849727340      0.16899833414555
  C   6.33584989481272     -4.57214826890803      0.31007980487465
  C   7.39024452301264     -3.90140093891998      0.75262145410217
  C   7.06747528053434     -2.44689743921245      0.97644782382103
  C   5.76697335606796     -2.27038463090634      0.16768817628608
  C   4.90994537868866     -1.06000253077069      0.52112642335033
  C   5.55073554590194     -0.02302892835838      1.09569391657521
  S   4.95290393417268      1.55488861446828      1.37052730969074
  C   3.37369480833609      1.55641059360341      0.57710777079596
  O   2.78607728091423      2.60462094306175      0.50687490686617
  H   1.67551139621571     -1.95901767525473     -0.32249420185418
  H   2.71985097479539     -2.76892839731330      0.81096894485625
  H   2.61352786578341     -3.19333479726658     -2.13279780458157
  H   4.62798000658323     -4.55687406895895     -1.82673635390743
  H   4.50126221140804     -3.80703767276626      1.06254019332333
  H   6.30048088289824     -5.63595322592891      0.11233314129302
  H   8.35799601110281     -4.33017196977827      0.97528416533039
  H   7.86532030416079     -1.78016728991498      0.64491055222240
  H   6.90207159085870     -2.25513357918200      2.04311185487058
  H   6.07765442099649     -2.11848134026970     -0.87278333203083
  H   6.58335517912638     -0.11542039454881      1.40292810574854
