26
Coordinates from ORCA-job 4542optt
  Br  -1.34887315686018     -3.61383387942160      3.84245010703779
  C   0.48196617497863     -3.83225753528292      3.40551123333492
  C   1.16187399960931     -5.11909148917084      3.62556430551559
  C   0.94499442509627     -4.67734064371588      2.22087145803141
  C   2.23805610423058     -4.06656388556580      1.78171007215584
  C   2.60764071627989     -3.09339633645526      2.63919026454562
  C   3.91755420034495     -3.11240475815922      3.28507368355539
  C   5.13619931550470     -3.75748094610523      2.77373801639201
  C   5.70812233209571     -4.46080229422213      3.77534516398719
  C   4.82487693418649     -4.34977676853893      4.94486694771030
  C   3.85057551779400     -3.33457335255548      4.62975284095458
  C   4.48589498455565     -5.39587565261906      5.73447699528051
  N   3.29614998733680     -5.43441319676583      6.44663731103290
  C   2.16309982108380     -5.54113309539560      5.88225391883622
  C   1.94602826743029     -5.81483062823817      4.43126100692831
  C   1.41507715680512     -2.66501871038487      3.45443834075021
  N   1.18590166286825     -1.59010693715194      4.06368545836379
  H   0.22380412580790     -5.16011249233013      1.57623949355260
  H   2.93495176940534     -4.62810581237659      1.17338024626578
  H   5.48015419866076     -3.70289355570826      1.75144140020599
  H   6.59369852999093     -5.07578254934028      3.72142836927205
  H   3.02491572815470     -3.07805627002875      5.27160315587447
  H   5.12680672828077     -6.26749806210448      5.82762755660632
  H   1.28097469139750     -5.44304131812986      6.51306849937952
  H   2.55483099806998     -6.60979458356549      4.00658861988285
  H   1.96972478689184     -0.94281524666736      3.96479553454780
