34
Coordinates from ORCA-job 4546optt
  Br  1.42482662908991      0.30301612369523     -2.45563056965160
  C   2.50756359542170      0.47739509369292     -0.90675960955609
  C   3.27925648175353      1.57424001025037     -0.71826467451304
  C   3.05784571893029      2.89228978496654     -1.39537201577790
  C   1.65845986142251      3.47582272174102     -1.09857639926812
  C   1.19680573794559      3.51685419817822      0.37325279470181
  C   0.28488890864302      2.41630672196093      0.94252870146422
  C   -0.81801967665416      1.84301705523196      0.05869218018646
  C   -1.08551864931135      0.48769219830309      0.72033134545774
  C   0.28657459422368      0.08025931436184      1.28865896249465
  C   1.05590284588138     -1.03070110933914      0.47746490076362
  C   2.41496462092928     -0.48062411953220      0.15952717007635
  C   3.40702914832782     -0.53978121588004      1.07334890203021
  C   4.48064702782363      0.43925811667761      1.08967997085005
  N   5.53965080979427      0.48500741733826      1.80365172993861
  N   4.19942166692917      1.54435293832912      0.28370599967685
  O   1.04287092598679      1.28636215262533      1.35402984846394
  H   3.17185332791439      2.78560690174717     -2.47551245894028
  H   3.82522780730184      3.59337876958828     -1.06019019978883
  H   0.92343646735636      2.95267780294781     -1.70726797089294
  H   1.67214464175488      4.50060795143279     -1.47503106611304
  H   0.64335040824150      4.44877570538405      0.50977675889089
  H   2.06029725305857      3.58487731396151      1.04219366988068
  H   -0.18149176247027      2.84552543008797      1.84067696331033
  H   -0.46764024329129      1.69647007155488     -0.96065378996406
  H   -1.70061968297916      2.48130424757869      0.03197747191001
  H   -1.80147599553454      0.60254613565409      1.53527757050796
  H   -1.48246546700449     -0.25208612201478      0.02657824695987
  H   0.17804833106930     -0.29108975324685      2.31015250698451
  H   0.50341735357627     -1.29173491496453     -0.42339832956674
  H   1.13888252137834     -1.92557600825997      1.09283724899903
  H   3.32878130807085     -1.20120793878840      1.92711249166516
  H   5.61887040912844     -0.34887398492529      2.37691498022845
  H   4.80421307529191      2.34003098966148      0.42728666859125
