25
Coordinates from ORCA-job 4548optt
  Br  1.24770217905219     -0.20928180231214      1.29707819245755
  C   3.01171579949186     -0.18459178058229      0.62732658281824
  C   3.67865611999771     -1.26794080286280      0.17302719881293
  C   5.11648406698501     -1.18945882016618     -0.11414244515891
  C   5.82844410305402     -2.51217052563782     -0.27999119518177
  C   5.18830978097951     -3.60534631029861      0.57373778855703
  C   3.75257064024372     -3.75054080582021      0.17936377471767
  C   3.12222368253457     -4.96582237382678     -0.03054007201639
  C   1.81055748002988     -4.98278969180312     -0.47509243046892
  C   1.18673682529927     -3.76727985663359     -0.71922987703192
  N   1.77579157671344     -2.59529619311834     -0.52226590644169
  C   3.02186232963718     -2.58253790095571     -0.05620330150619
  C   5.77917687967315     -0.01824999435941     -0.23370549044023
  Br  7.60116495251601     -0.00070048341647     -0.78259071351486
  C   5.22807799261700      1.32329998930321     -0.01730059674142
  N   5.74516558121608      2.45731680764637     -0.23042704916747
  S   3.64667109722876      1.40726605891973      0.77298301671310
  H   6.87589444012136     -2.39615368608687     -0.01548119317261
  H   5.79441696202167     -2.80516392481448     -1.33486296163844
  H   5.26895572010938     -3.33080841886376      1.62994910950655
  H   5.71956320385213     -4.54772863100928      0.44069342798276
  H   3.66110963112109     -5.88984906139457      0.14386836589892
  H   1.28689760236181     -5.91256331288810     -0.64900314577522
  H   0.17132887484818     -3.73321578856710     -1.09783820294774
  H   6.68652247829499      2.38160730954833     -0.61035287626096
