25
Coordinates from ORCA-job 4552optt
  Br  0.88576517952014     -0.09355869240320     -0.07803983327159
  C   2.75944936201302     -0.08538555906577      0.09099230254725
  C   3.50049092313028     -1.20198730654161     -0.00890627991509
  C   3.14405445626332     -2.57048133684625     -0.24950663852791
  C   4.30182884183090     -3.29011471204073     -0.27515874078257
  C   5.44437891352875     -2.43435414176281     -0.05213231267199
  C   6.87028402696759     -2.86692098231675     -0.02927327795029
  C   7.20858333263155     -3.90977236048023      1.05770727010125
  C   8.36394742383666     -4.70822341847520      0.45641610607116
  C   8.16084447215413     -4.58121506756940     -1.04788119039221
  O   8.71087388487510     -5.21541457138944     -1.91596408659466
  N   7.24556919704071     -3.58829914679234     -1.23947006988316
  C   4.97792047459664     -1.16177491132936      0.11026886616484
  N   5.71133524180949     -0.03173437193484      0.33261257575053
  C   5.14478928841121      1.10155188221245      0.45452368049206
  S   3.43614295729713      1.47181288121507      0.37413707548675
  H   2.13945761552470     -2.93688787640184     -0.38636127363456
  H   4.37236390548069     -4.35512529270156     -0.44859538259668
  H   7.49430592390687     -1.97696101969822      0.09847222120817
  H   6.34260299348262     -4.55665222868255      1.20675241677086
  H   7.44199388402529     -3.43174240226732      2.00654907678660
  H   8.39582839493208     -5.75511552814886      0.74887156422713
  H   9.33491974653395     -4.26505681274526      0.68952596025961
  H   7.07481173386520     -3.22583132872553     -2.16446125481670
  H   5.73845782634191      1.99324430489158      0.62992122517119
