25
Coordinates from ORCA-job 4556optt
  Br  2.69469073975707      0.45064211065355      2.44470859074999
  C   3.58918911378589      0.13345732264259      0.82126914290161
  C   3.91860746502427     -1.13790419926591      0.45603274525856
  C   3.76197706350385     -2.42736846864031      1.01396862556119
  C   4.33395913484259     -3.29366817589054      0.10947967285437
  C   4.45541043057233     -4.77369139215215      0.21783796189541
  C   5.91132255854653     -5.20920233825872      0.13879266279113
  C   6.81381827575799     -4.89743472032981      1.35830000872005
  C   7.12714275041357     -6.39280479402528      1.34864614902634
  N   7.95099642467302     -7.19502759282385      1.86260426212538
  N   6.13908073032444     -6.63362155765575      0.41167948418885
  N   4.86282753678643     -2.65918516487260     -1.00502558077340
  C   4.62238412130775     -1.39106466974470     -0.81276119281157
  S   5.03432442381620     -0.11770553372872     -1.85604879811680
  N   4.50442924644699      1.22766989012459     -1.13725839013384
  C   3.89484535935784      1.26054268024619      0.01062269160280
  H   3.28709632688927     -2.67490088552456      1.94867330401929
  H   3.90284854035206     -5.23926110732592     -0.60395511166867
  H   4.02320870842264     -5.12519055620720      1.15612207562844
  H   6.35237194901874     -4.86602961060197     -0.79832605905136
  H   6.26529629322371     -4.56511955898957      2.23941720707750
  H   7.66520509602407     -4.24664704671744      1.17638699132489
  H   8.55196460308536     -6.71836714366191      2.52887008305015
  H   6.15639471722026     -7.38800815817615     -0.25933703209663
  H   3.59760839084705      2.24289067092618      0.36130050587629
