21
Coordinates from ORCA-job 4557optt
  Br  1.08291293040141      0.08119503584117     -0.06606702785328
  C   2.93232297633120     -0.13207020931043     -0.07517367237383
  C   3.58486474270288     -1.30598718688342     -0.07685327575495
  C   3.22329909411207     -2.69107078576749     -0.07325844968547
  C   4.38867751610881     -3.39868271128221     -0.07503646272887
  C   5.53104480430068     -2.50765740152956     -0.07959411939110
  C   6.91609416649951     -2.89982040721821     -0.08009919546372
  C   8.08718636902711     -2.20556656989156     -0.08244129535541
  C   9.05974569432310     -3.23402692287618     -0.07951037772817
  N   8.52627298349161     -4.42940068944458     -0.07582917094355
  O   7.18318809896486     -4.21810102361963     -0.07632125685284
  C   10.48391591810284     -3.08467904531654     -0.07955055688443
  N   11.61705859464213     -2.91796270445930     -0.07932141534624
  C   5.04634857800093     -1.22790490706498     -0.08122856861912
  N   5.69558151742963     -0.02182768624003     -0.08503610878878
  C   4.96414916360607      1.01445981812458     -0.08430769754509
  O   3.59882024315226      1.03022843098920     -0.07930636408382
  H   2.21899275653322     -3.08129634296352     -0.06990518550779
  H   4.47245146914494     -4.47525667989675     -0.07307347074150
  H   8.22700131295690     -1.14053599707640     -0.08549803534946
  H   5.35407107016779      2.02196398588587     -0.08758829300257
