31
Coordinates from ORCA-job 4559optt
  Br  1.15944266273693     -0.30652594755031      0.82875697292010
  C   2.95154415583568     -0.22987291384384      0.25686151023170
  C   3.68509810819971     -1.31782195829002     -0.08943487114903
  C   3.19265967257252     -2.72933331615894      0.09416864685778
  C   4.25720651458389     -3.51519815314317      0.87444604143510
  C   5.61194384275766     -3.53503740431944      0.14255360558387
  C   5.63154808033834     -2.51803028493332     -1.00816934242529
  C   6.96872268516621     -2.54512006752431     -1.76117726604489
  C   8.04211623232804     -1.77280134953654     -1.04772246975156
  O   8.75791420363989     -2.26185258824660     -0.21076575902205
  C   8.09097145915291     -0.30352857243619     -1.38504976522853
  C   7.10560219324336      0.45678409163380     -0.50187279206341
  C   5.65125236610118      0.03806275114749     -0.43959594339221
  N   4.86777979250328      1.09969941718745     -0.06148261329905
  C   3.51854860784139      1.10666595528896      0.25018359100872
  O   2.95229763347814      2.14675726982846      0.51602436944523
  C   5.06290701594277     -1.19039140221806     -0.53903551136810
  H   3.00503629367562     -3.19867771519906     -0.87579120548221
  H   2.24913938088603     -2.73048892186966      0.63206143123377
  H   3.90209794558813     -4.53026878760727      1.05178439038747
  H   4.36509366332132     -3.04513478300410      1.85325421628395
  H   5.80176257272099     -4.52289996941007     -0.28245409697769
  H   6.43392764898446     -3.32376775723805      0.82877835949809
  H   4.91013833634861     -2.88268778676142     -1.74505541442676
  H   6.82875576779695     -2.13103011657612     -2.76033395455188
  H   7.28309213750178     -3.58540296140773     -1.85043641147081
  H   7.85272452684888     -0.14660378718091     -2.43704050048004
  H   9.09268616517886      0.07289972556231     -1.18273658369232
  H   7.13912966778962      1.50718331744563     -0.79785623027388
  H   7.47509383440704      0.41477533621073      0.52777751567745
  H   5.28776683252972      2.01664868015030      0.00436008053651
