31
Coordinates from ORCA-job 4567optt
  Br  1.03177060692461     -0.25756871553289      0.16657433042262
  C   2.90524382212141     -0.14428826779944     -0.03898757002275
  C   3.65359565443066     -1.25601611910059      0.06364144796242
  C   3.17054075193158     -2.66206420423564      0.30608912097791
  C   4.33639157178194     -3.54570679687550     -0.17490948623195
  C   4.22282142995428     -3.79798888439005     -1.67872719994511
  C   5.26239699451765     -4.76665657913396     -2.21689174812964
  C   5.14305036754423     -6.20531674974561     -1.66289021544983
  N   5.40722355090558     -7.10305273111774     -2.79575445839640
  C   5.36583969385319     -6.37428920588777     -3.83272340013521
  N   5.09627671809038     -5.02845862255053     -3.65211990366636
  C   5.57536604829623     -2.70103455550023      0.18263311776207
  C   5.10032981607294     -1.28570362937240     -0.04670010229076
  C   5.83819777226247     -0.20904301542006     -0.32710911036902
  S   5.17776079025747      1.36923406914410     -0.55905838520900
  C   3.42465773943239      1.20477620139444     -0.29267661604963
  N   2.66731168464521      2.21953605563801     -0.34668669501979
  H   2.23187360981953     -2.87205986022207     -0.20520144250467
  H   2.99187889709634     -2.79421130031446      1.37820427354559
  H   4.34338230320592     -4.50045623327259      0.35382140255097
  H   4.29051048085853     -2.84184767771960     -2.21016292104412
  H   3.23677117297701     -4.21314671396117     -1.90434450091087
  H   6.27245217557320     -4.38260715100585     -2.03226829620421
  H   4.12695478313300     -6.39269483344440     -1.29714029079526
  H   5.83276864997139     -6.40646193693437     -0.84415866077971
  H   5.48843676322721     -6.76185560576398     -4.83827936443426
  H   5.48104050066289     -4.37158187251172     -4.31341353993025
  H   6.46425370722491     -2.94758916597437     -0.39692312821799
  H   5.82320605652739     -2.83607494588441      1.23953807198940
  H   6.91582924696774     -0.24765569781980     -0.42790452647310
  H   3.17186663973263      3.08388474531469     -0.53147020300106
