28
Coordinates from ORCA-job 4570optt
  Br  1.06420166883742     -0.20344015603006     -0.15347702089908
  C   2.94345964220810     -0.16739168843367     -0.07365832100490
  C   3.67162270754519     -1.28886947069337     -0.02716905805331
  C   3.27706078772650     -2.68658581867971     -0.02304681637715
  C   4.41382856412473     -3.41279014063378      0.00477410343346
  C   5.59518859465612     -2.54243788267246      0.01486267673209
  C   7.00084614087826     -3.05670680587789      0.03579023140018
  C   7.16141627466478     -4.36116598448735     -0.76835800512905
  N   8.58432186249955     -4.37547991193414     -1.05211881106782
  C   9.13429762787942     -3.11432310485673     -1.09746854748556
  N   10.28376429703709     -2.73763463033971     -1.47519326886136
  C   8.07531957586439     -2.15666826677754     -0.59127593483310
  C   5.13613059743224     -1.26540928582564      0.00737562698595
  N   5.83926567745102     -0.07082490623009      0.04599612710475
  C   5.33936645349356      1.20520850067789      0.00995268040001
  N   5.98551612869957      2.29368490334777      0.03374689332758
  S   3.57624871359098      1.44395122479896     -0.07730196608073
  H   2.25954994953521     -3.03920906663814     -0.04526466986962
  H   4.46633561809319     -4.49272849404222      0.01322203144816
  H   7.30219511272145     -3.27948015789310      1.06534509184385
  H   6.55541230203808     -4.31933285047474     -1.68120536418754
  H   6.86411305819589     -5.23959843328546     -0.19551214223789
  H   9.00147006124216     -5.12408722733627     -1.58095295165718
  H   10.85001952868045     -3.51463579050055     -1.81256664143872
  H   7.67532227049143     -1.61890647078969     -1.45591421947100
  H   8.52989877089842     -1.44053988487415      0.09268619729758
  H   6.84525407028384     -0.12791829810541      0.10013171328759
  H   6.99357394323090      2.15932009858728      0.07760036539280
