26
Coordinates from ORCA-job 4574optt
  Br  0.85658638894038     -0.24298142764896      0.04111563255236
  C   2.73493411220332     -0.22606666620870     -0.12854815261527
  C   3.47041595238078     -1.38875169320822     -0.03084367280350
  C   3.01185189834310     -2.80974452009961      0.21189105284592
  C   4.27859994227376     -3.63182950513267     -0.15015808992966
  C   5.48408478793228     -2.68069898409142      0.01166833464937
  C   6.15095514407813     -2.81196607449334      1.33915101625952
  C   5.92898059177896     -3.51950714339354      2.46696212377951
  N   6.90721077280641     -3.20648805558956      3.40111867911199
  C   7.64910269382994     -2.34646663018671      2.80688317692551
  O   7.26199035318008     -2.05013161089136      1.55106240852959
  C   4.84955955446350     -1.31409002981034     -0.15696374734259
  C   5.44380235816982     -0.08493309015107     -0.38449486169757
  N   4.73028784593375      1.03441640443626     -0.49252155772217
  C   3.41126294276530      0.96684543651849     -0.36703902557200
  C   2.56614515616424     -2.99242326040281      1.59416712645933
  C   2.21134135956762     -3.14190355531763      2.72778413814730
  H   2.17885737173912     -3.06196089205287     -0.44836052984210
  H   4.20714263324728     -3.92625646488025     -1.19647102166588
  H   4.36774298047425     -4.53471154935688      0.44923525442283
  H   6.23278853939523     -2.85916999297690     -0.76409579443128
  H   5.13565618830780     -4.21428947004862      2.68142549591252
  H   8.52732417253045     -1.84525116111360      3.17881777829803
  H   6.51927658157344      0.00977436747051     -0.48560990363389
  H   2.85697810518441      1.89354550375515     -0.46008323157366
  H   1.89812157273655     -3.26695993512530      3.73690737093578
