25
Coordinates from ORCA-job 4575optt
  Br  1.40252332109559      0.39245580617772     -0.02377718999733
  C   3.14774020190110     -0.19501481313674     -0.44818584571301
  C   3.67092031558282     -1.28107992578140      0.20254153241878
  C   3.23596545157844     -2.19130829160481      1.19685478057178
  C   4.26928469951489     -3.07841698310036      1.40136398737558
  C   5.38718192577232     -2.77713565437334      0.55981620712933
  C   6.68107428541287     -3.51973976690867      0.50106594662475
  C   6.55568954904163     -4.99419341574508      0.04651625665348
  N   6.91648905746359     -4.96579448237959     -1.37778487223262
  C   7.39206603624772     -3.81648091897380     -1.58246446933742
  O   7.47798636377514     -2.93752310478025     -0.56371459032385
  C   7.78424935079680     -3.30568496323879     -2.92620354621224
  O   7.89597152571044     -2.12995002156992     -3.13976823698615
  C   5.02068258739983     -1.67443797633795     -0.17550827640398
  N   5.63805061983513     -0.92004648452860     -1.13791762765182
  C   5.00819234711074      0.11861207722486     -1.69738224523941
  N   3.79578089726730      0.50471671038349     -1.38669028170603
  H   2.27724275200895     -2.17678380987110      1.68778851693802
  H   4.24705910572749     -3.90036978718056      2.10450206744771
  H   7.25786765063999     -3.42130265681975      1.42060027736365
  H   5.54335536717666     -5.37546894991443      0.16994796030952
  H   7.24618386008640     -5.66106567168597      0.56679671402317
  H   7.91480371314308     -4.07542325436260     -3.70001241908787
  H   6.57742094588792     -1.15952762157459     -1.44156313788171
  H   5.55821806982300      0.65896396008234     -2.45682150808230
