29
Coordinates from ORCA-job 4576optt
  Br  3.51648586031141      0.14825668834365     -2.50033044895637
  C   3.35914470746467      0.10169175781291     -0.63061009666235
  C   2.92577909647231      1.17058704106862      0.06940925850523
  C   2.57645204830533      2.48341923184320     -0.59062076557115
  C   1.19460815485000      2.51342774177371     -1.30609170552811
  C   0.16769487345385      3.47610341550102     -0.69007413168321
  C   -0.43735377971609      3.01050282483256      0.66459031525931
  C   -0.33848784481209      4.10591289771841      1.74752364604420
  N   1.03396842134046      3.86736327723114      2.20210223075654
  C   1.24661923380359      2.53221879054220      1.92907645193251
  O   2.41759177446337      2.00514091353485      2.32628447582843
  C   2.84462009593125      0.97159871081429      1.51185015883280
  N   3.18567649101775     -0.08780717764012      2.12565311280269
  N   3.65903252367783     -1.09706073336385      1.38489636146355
  C   3.73838711600450     -1.16592696683617      0.00393977660515
  N   4.11083391443291     -2.18560831563692     -0.66270900845563
  N   0.41098803179845      1.93409361444906      1.19098172470680
  H   3.35737774823457      2.68004951314518     -1.32558870977873
  H   2.63919769959070      3.28895333167994      0.14151448090682
  H   0.78220305010788      1.50488318263851     -1.34041602731190
  H   1.35858579119084      2.81921328692818     -2.34013314028075
  H   -0.64300734963934      3.63136086556154     -1.40432516003737
  H   0.64797659519884      4.44944174266295     -0.55380870165985
  H   -1.45865437135656      2.66024843069983      0.53206671881750
  H   -1.06250426972785      3.93652071808308      2.54974287754991
  H   -0.45931673760821      5.11209778826429      1.34903666457879
  H   1.36316760509842      4.23683987104508      3.08086393854165
  H   3.89824109365922     -1.91653078052580      1.91947179067989
  H   4.33669242645196     -2.97499166217137     -0.06129608788636
