23
Coordinates from ORCA-job 4580optt
  Br  0.93693655397987     -0.31603952983898      0.22245721851801
  C   2.81325664733391     -0.22055345482175      0.19126504046572
  C   3.54612312329878     -1.30919974346082      0.01129936293931
  C   3.05923339048712     -2.75640481604456     -0.18292018159651
  C   2.38469148610199     -2.94808387957664     -1.46984825854614
  C   1.84091081485062     -3.11101261077414     -2.52298470415914
  C   4.36399041799863     -3.50033125298842     -0.06353517817130
  C   5.38423459058609     -2.60525263355249      0.03295214799991
  N   6.53433554767657     -3.28060160564746      0.17708417893586
  N   6.30133401781537     -4.61306205838074      0.17616744685868
  C   4.99461924772938     -4.75392261842543      0.02556032577061
  N   4.97049912433847     -1.27308466752975      0.02646464004921
  C   5.77253034764092     -0.17797812001309     -0.21190543015094
  N   6.99765805068745     -0.20139971805362     -0.53872114105559
  C   5.15275936303513      1.19120003994546     -0.02072351993288
  N   5.81900545102645      2.25058626905994     -0.12478891133818
  S   3.45360087098604      1.38271444191536      0.42999660614577
  H   2.35872940977812     -3.00036008588051      0.62023863747582
  H   1.36159588141635     -3.25138125493121     -3.46243593148023
  H   7.46323094957716     -2.94823077480263      0.37068458181322
  H   4.57103728972843     -5.74377513963470     -0.01467436358904
  H   7.35341974499954     -1.13271212762571     -0.72873962281988
  H   6.78926767892750      2.01688534106191     -0.35189294413229
