25
Coordinates from ORCA-job 4581optt
  Br  1.15522928288625      0.12376042814961     -0.13879861369131
  C   3.04031665994643      0.07910768620742     -0.03463068837198
  C   3.70808524349848     -1.12590157799226      0.01471771380382
  C   3.17556303249218     -2.54905983267029      0.04319381443865
  C   2.37251322340397     -2.81844342796971      1.23877892045217
  C   1.74086270745646     -3.03652983420752      2.23076138446506
  C   4.45391094783043     -3.35128236864119      0.02698617595365
  C   5.52838926240458     -2.52732072965643      0.04703393313221
  N   6.79520717323914     -3.00545548524740      0.05290162415578
  N   7.05898197034328     -4.32091627147311      0.05460246625737
  C   6.06562504223418     -5.13655806379191      0.02797622597782
  C   4.63286485771144     -4.77949346432433     -0.01390883289607
  N   3.65787854329321     -5.60368621304219     -0.09389488573276
  C   5.10865677813326     -1.12617409542790      0.04133094095416
  C   5.83986301961740      0.04909196919261      0.03823428198653
  C   5.14471518069942      1.25262438372566      0.00652969036917
  C   3.75726267211246      1.27301484118141     -0.03470141259518
  H   2.56896645183088     -2.75990544826194     -0.84469621678601
  H   1.17457743207445     -3.24339676676601      3.10674932505920
  H   7.60337541686804     -2.40840310854055      0.07082013115781
  H   6.33377604179421     -6.18821763631327      0.02891632057796
  H   3.99301078482523     -6.56586240858616     -0.11571443299544
  H   6.92249685225701      0.04343004776092      0.05791355684278
  H   5.68705617664017      2.18882372978502      0.00641291578380
  H   3.22381524640735      2.21275364690956     -0.07251433829917
