27
Coordinates from ORCA-job 4582optt
  Br  1.01999546437219      0.09728418273102      0.00093545622143
  C   2.88841112646442     -0.03003150594476     -0.07013921275496
  C   3.54180167986946     -1.19945524099544      0.03553991077195
  C   3.02143402781608     -2.59997975575026      0.19250410524706
  C   4.21805989170568     -3.47519620532521     -0.23769998649819
  C   4.18796322322773     -3.69631877087463     -1.75730555807673
  C   5.37016982712151     -4.46029558496174     -2.25014991468277
  C   5.86479184178008     -5.71090315243429     -1.97708199105756
  N   7.01278683417635     -5.89231426740907     -2.67996421250725
  N   7.26007289776430     -4.83243980799573     -3.36837536547306
  N   6.28050786190025     -3.96350363720765     -3.11572208927087
  C   5.45437247183871     -2.65209861985230      0.18350013453922
  C   4.98043211802745     -1.23520102113545     -0.00332454503011
  C   5.64112730853093     -0.09010452885123     -0.18921235265124
  O   4.99692177606751      1.08632360721767     -0.31804336215917
  C   3.62336543791574      1.22289962264293     -0.25944364166291
  O   3.15704842575531      2.31466844188269     -0.37590038769002
  H   2.11781724299336     -2.77627114721367     -0.39188912712793
  H   2.76710383780886     -2.76922826683255      1.24305384265268
  H   4.20435413169021     -4.44527742617182      0.25891793177807
  H   4.14638643410241     -2.72480662964937     -2.26055758378449
  H   3.27142646636037     -4.22622774194490     -2.02386583618700
  H   5.47141474530506     -6.47617848227240     -1.33024908998549
  H   6.28551685538337     -3.06478791067506     -3.57199693604312
  H   6.34594556396743     -2.90256891376093     -0.39133095835111
  H   5.68073820887855     -2.83275690239870      1.23721276196135
  H   6.71403429917662      0.02576966518288     -0.25241199217777
