28
Coordinates from ORCA-job 4587optt
  Br  2.23076029806929      0.65566027856573     -3.61189522360717
  C   3.05714326932575      0.59741093229499     -1.92187560370986
  C   3.30861827926174      1.65492985507465     -1.14360676136766
  C   2.93896264735377      3.08148499070635     -1.46289276806701
  C   2.29645407083765      3.92028880197347     -0.34100079033206
  C   0.88841860517892      3.52368272436618      0.14689543987422
  C   0.92899675356830      2.22164927035445      0.87716748235304
  C   0.27182803596397      1.05882697153820      0.66840715885540
  O   0.91915436524159      0.07183974258707      1.35443112857498
  C   1.96406217829716      0.69635339097493      1.93893725656141
  C   3.23503423058947     -0.09470823797579      2.08638238503923
  C   3.70879911576214      0.00159808925139      0.64245371709397
  C   3.41742513297022     -0.94638471545714     -0.24624071480769
  O   3.33563681401626     -0.68772174842849     -1.58217514097854
  C   4.06814783105130      1.33747690853726      0.08762271974208
  N   4.88234639881422      2.17796438777522      0.57560344315358
  N   1.97166549783501      1.97033498620738      1.75321165220528
  H   2.29239153861057      3.08764214430135     -2.34096312510910
  H   3.86223185980548      3.59706026315350     -1.74236312119579
  H   2.23629216690624      4.94156674045601     -0.72212199138321
  H   2.96709981306158      3.94085256451597      0.51752998181568
  H   0.19062136920401      3.44621069715995     -0.69007063021882
  H   0.52470588647432      4.31776114223337      0.80325302458368
  H   -0.59536758713550      0.77436759374535      0.09994851076553
  H   3.05683083269506     -1.12603723071069      2.38465082324139
  H   3.90195117446125      0.39351450984384      2.79300427836127
  H   3.15334849236911     -1.96921499986875     -0.01512170349684
  H   5.30344092941109      1.82958994682425      1.43682857205301
