26
Coordinates from ORCA-job 4589optt
  Br  1.33636206967921     -0.46427828350927     -0.01535238095355
  C   3.20445431094849     -0.19321418354391      0.05128353758979
  C   3.71231475321200      1.09318504328906      0.05425011128069
  C   3.04115585770628      2.44117796523657      0.03464532667350
  C   4.23474475547225      3.44484336536668     -0.08477220832393
  C   5.54714430279314      2.63452160747181      0.03877382068938
  C   6.39922978715398      2.98679888979274      1.26390548147547
  C   5.63994092901510      2.97119968273686      2.60841235083493
  O   5.57121615345385      4.36053475507390      2.97970479319777
  C   6.35180942656132      5.00995015741613      2.09422259769972
  N   6.87150815478622      4.37376033589245      1.13853639341084
  C   5.09227265028561      1.20347002818991      0.07014573521623
  N   5.90686254330751      0.15668806381885      0.11469781117786
  C   5.30049709480867     -1.02529190228253      0.12208278441443
  N   3.98707266154359     -1.24985289984449      0.08244831026928
  C   2.24616494235567      2.66324642562929      1.24676288059446
  N   1.65655341038933      2.85557692146230      2.21037216547168
  H   2.36004381494288      2.52374118404504     -0.81489762719777
  H   4.16371610664510      4.21426760641507      0.68305399972365
  H   4.18247310029513      3.94778088742359     -1.04693076985132
  H   6.18393462120717      2.78998259256925     -0.83386437838654
  H   7.25335053202930      2.30957875803333      1.27807838172724
  H   6.18188559274017      2.43784198409667      3.38827220886368
  H   4.62174496633554      2.58382479625214      2.55461965183745
  H   6.46738784948954      6.07016511736552      2.28009662043205
  H   5.93315961284284     -1.90449889839701      0.15545240213300
