25
Coordinates from ORCA-job 4591optt
  Br  2.03939978975619     -0.12968917671107     -2.79939727048237
  C   3.14172537381983     -0.13903226761740     -1.27802019310026
  C   3.63862517239080     -1.31325771357439     -0.79110237020248
  C   3.55095269585071     -2.67734124608757     -1.15050102757796
  C   4.29271390380895     -3.35504659284020     -0.21016601517767
  C   4.50344178641451     -4.82776858405240     -0.11388497778113
  C   5.96315869392584     -5.19515064101647      0.08828280139009
  C   6.55217534079965     -4.86703949934568      1.46028195013858
  O   7.37597260729290     -6.00149277016875      1.72948402601468
  C   6.99811177781310     -7.03186630184724      0.93598952003804
  N   7.40791012416373     -8.21219757135928      0.98297728711893
  O   6.08036884664928     -6.61627030458989      0.03777049735142
  N   4.87085319467285     -2.52832973721722      0.74057525145898
  C   4.48940699468427     -1.32254900849035      0.40890499769593
  S   4.87494459014707      0.11431941244858      1.22078762171530
  N   4.14303507348593      1.29437621610230      0.39795208009446
  C   3.41761062130601      1.11281749568028     -0.66583630094661
  H   3.01310231276620     -3.09423598350385     -1.98543981271319
  H   4.13641840835159     -5.31556517437964     -1.01664721630385
  H   3.93212995150632     -5.22412110709554      0.73159985750103
  H   6.57619539685831     -4.77023596659616     -0.71204689375062
  H   5.77937053066225     -4.78370664775725      2.22612253542780
  H   7.16375109122440     -3.97069881432932      1.46627547917113
  H   8.06274340064778     -8.32491578700930      1.75020762947455
  H   2.99288232100143      2.00799777135786     -1.10716945655479
