29
Coordinates from ORCA-job 4592optt
  Br  1.20649736138873      0.20324046701400     -1.67843665924522
  C   2.90373285334748      0.20297016581865     -0.82734251382734
  C   3.58671042033554     -0.97386675249011     -0.52477239782166
  C   3.03287140199376     -2.33355736209828     -0.86222929279759
  C   2.35914573965510     -3.06883464160843      0.32173528576144
  C   3.05804221205417     -3.04210743571156      1.67965938695132
  C   4.53707630676360     -3.44837997984295      1.77623134693423
  C   5.16358556340657     -4.14908770423407      0.57070921464549
  O   5.72241361011663     -3.08490674631470     -0.19128328831727
  C   5.74149874577224     -1.91951353206044      0.60021793373606
  O   5.39507309870429     -2.31818773520484      1.90021322865379
  C   4.83356962811888     -0.80496135613944      0.09524168350373
  C   5.29041028983744      0.48300463947784      0.34403732240797
  N   4.62134467541149      1.59188734356291      0.05368306483828
  C   3.44035260105075      1.44826396201394     -0.52247968893414
  C   0.93505688157413     -2.56645795613281      0.47591886798747
  O   0.46020989625236     -2.17024003388260      1.50167878201815
  H   3.84110202888867     -2.94148230112789     -1.25479904015664
  H   2.29572176048814     -2.23311995860728     -1.65890058059289
  H   2.23824974754081     -4.10745963598687     -0.01354342458399
  H   2.47540721056595     -3.68501879159926      2.34144122277444
  H   2.97259445412723     -2.04161136004797      2.10784277439835
  H   4.68419321055021     -4.02941675727273      2.68482971285188
  H   4.44563672072650     -4.69142384811524     -0.04599789319817
  H   5.95836629981603     -4.83010797891856      0.87915928187115
  H   6.76300362531942     -1.53534771122005      0.64233215041663
  H   6.26159436248390      0.61992731323075      0.81011105386117
  H   2.88839170508022      2.34893844582960     -0.76355995513409
  H   0.33114758862973     -2.59714275833158     -0.45169757900257
