20
Coordinates from ORCA-job 4600optt
  Br  1.09766865047875     -0.24047931463393      0.04381580714267
  C   2.94821855116724     -0.00492461840708      0.02926524447799
  C   3.55686985090495      1.19111275524522      0.02528748179823
  C   2.86874606146214      2.46079226891057      0.03015558927888
  C   3.55306794780647      3.61433034759504      0.02893483803767
  C   4.98238594566129      3.62783707850790      0.02117989886832
  C   5.67091905046982      2.46368000437667      0.01353516922529
  N   4.98308819575339      1.22497104029416      0.01592412297908
  C   5.69730899263827      0.05632818296225      0.01055044318087
  N   6.97628249249573     -0.02823903369038      0.00190602477282
  C   7.69708069584837      1.12674481586328     -0.00365036522637
  Br  9.55812667742157      0.87750027364127     -0.01955475583975
  C   7.11819902569644      2.34787617649237      0.00139316730794
  Br  8.11495933980905      3.92957337532605     -0.00776129150215
  C   4.95636718223440     -1.26307806534836      0.01464000111514
  O   5.50878158136618     -2.30971092675227      0.01036145033876
  O   3.60694839328611     -1.19912590136944      0.02368815153012
  H   1.79054380505178      2.43819591248052      0.03504736462854
  H   3.01895812085813      4.55491331968666      0.03324168433792
  H   5.52447943958986      4.55770230881950      0.02003997354801
