28
Coordinates from ORCA-job 4603optt
  Br  1.13086946984406     -0.33068162783128      0.15835472153443
  C   2.99576569504872     -0.06453841574366     -0.00097715501165
  C   3.55243858540335      1.14335167752725      0.30005200273605
  C   2.68175799639507      2.22430672585535      0.81973609030076
  C   2.68790997815920      3.48896094540903      0.40220241575413
  C   3.55274833237041      4.01036720266574     -0.71305972680264
  C   5.06010591561977      3.85694758560674     -0.47666297999447
  N   5.71379632193473      5.06426231658302      0.02503489950874
  C   7.00441477780509      4.61312096482156      0.59076789164564
  C   6.95635516935701      3.06314370803022      0.66025121467245
  C   5.46573791039212      2.77570747245608      0.53777350182198
  C   4.98451099438395      1.39682619910419      0.18198492639557
  C   5.84188613388352      0.43805321794388     -0.21601798568926
  S   5.44593778430087     -1.16463802547273     -0.66604873859710
  C   3.68379998764407     -1.26471416935968     -0.48109772614996
  O   3.15605458402583     -2.31116462821078     -0.75629728659139
  H   1.96546305302873      1.92296102520582      1.57429672738503
  H   1.98449383877619      4.17281581539643      0.86388223854216
  H   3.33534217638962      5.05905879029828     -0.91578999515111
  H   3.29175936280190      3.46171083798388     -1.62125257559330
  H   5.53394262061320      3.60207211116517     -1.43151937241594
  H   5.13980539749056      5.45992594523832      0.76207717178063
  H   7.15490692266822      5.05462906938877      1.57563331054946
  H   7.82530623471890      4.94448973931855     -0.04541648501552
  H   7.39768872564494      2.66457231589715      1.57324138949861
  H   7.50098202640683      2.64580970708919     -0.18892887970206
  H   4.99510739140659      3.05372194958698      1.48583042998591
  H   6.90511261348645      0.63192154404649     -0.26805002539715
