27
Coordinates from ORCA-job 4610optt
  Br  4.56080737169251      0.02984382028904      2.34138244978423
  C   3.59759568098336      0.25775852977185      0.74404848197310
  C   3.19099383390311      1.43930830613132      0.26173933835778
  C   3.17601212726982      2.75317209543348      0.98037709684272
  C   1.80860070746925      2.96594005079602      1.67504019790714
  C   0.66023369865849      3.58782154270688      0.85894071467889
  C   0.09471575304246      2.83622316332127     -0.30623935090064
  N   -0.29463708697124      3.32648977541392     -1.39450292194298
  C   -0.69550687497397      2.21489924901065     -2.25019624835367
  C   -0.38136087940146      0.95328863852747     -1.43356531070134
  O   -0.01343050138079      1.46253850134444     -0.16785460148878
  O   0.67637460031164      0.15945075483305     -2.01826175004989
  C   1.81727038259255      0.13338345761834     -1.28380025239221
  C   2.29603043111001     -0.97611215537656     -0.71735738600554
  O   3.32819278750417     -0.92987192071380      0.17030130591443
  C   2.50289045078861      1.40624512047971     -1.03486276563002
  O   2.39863683502751      2.36938928778141     -1.76282725309170
  H   3.36542307144513      3.55109498935628      0.26073137614897
  H   3.96281614980989      2.77861483985272      1.73250629174152
  H   1.96893986996026      3.64539211661207      2.51396061404936
  H   1.48092896014634      2.01688220162735      2.10529057651074
  H   0.95403251779082      4.56082942878870      0.46578704586404
  H   -0.16561697449024      3.76308439627339      1.55506245296073
  H   -0.11356197471135      2.22476601369155     -3.17130127101761
  H   -1.75588669728360      2.28708347854417     -2.49400173161815
  H   -1.21215832589634      0.26339298004533     -1.30366991157931
  H   1.92166408560304     -1.97590866216008     -0.87572718796179
