25
Coordinates from ORCA-job 4611optt
  Br  1.03449718746979     -0.25473954282982      0.41102848117669
  C   2.90895519172322     -0.35876568096355      0.33188605981827
  C   3.57135282426326     -1.50342418800689      0.02581872345202
  C   3.13203222368547     -2.81886098751692     -0.29333571404244
  C   4.25511532760585     -3.58549108930407     -0.51287503630759
  C   4.28895800335154     -5.05004323517569     -0.83900380080327
  C   4.95993321586425     -5.81978028644940      0.25423283698905
  N   5.99718942706368     -6.54371056036529      0.12107115613115
  C   6.29814853562105     -7.08380957318206      1.44171832835660
  C   5.24071112204165     -6.52408488824225      2.38617033937660
  O   5.09880049759908     -6.68260649130006      3.56752356277644
  N   4.44696517659111     -5.76133503790273      1.54859182784356
  C   5.43211771896337     -2.79093820156890     -0.33632313349409
  C   5.04199898312590     -1.51763956776226     -0.00996424283258
  C   5.80006668188031     -0.35412389567675      0.26881371703342
  N   5.31466526009815      0.80756660434471      0.57430695124644
  S   3.71244607619392      1.10436763972447      0.68398649211803
  H   2.10396312809209     -3.14148692632304     -0.35847525601744
  H   4.85167428212227     -5.23977426509191     -1.75288024498856
  H   3.27310563960260     -5.42840523022840     -0.97386639315345
  H   7.29458085135034     -6.78665980344680      1.77282440572454
  H   6.26365445978208     -8.17472077970269      1.44030115017415
  H   3.68864498746118     -5.17390898369965      1.85766282464090
  H   6.44617713866918     -3.14890982774958     -0.44345272590601
  H   6.88524605977861     -0.40971520158043      0.23123969068754
