24
Coordinates from ORCA-job 4615optt
  Br  1.19784933704370      0.36936704647043     -0.41743074805942
  C   3.03349725716547      0.08778859204111     -0.17318046294885
  C   3.58576059394798     -1.13074004526507     -0.03626536178918
  C   2.80541677799987     -2.41893674731835     -0.12248531474097
  C   3.61630600287318     -3.63524795828859      0.32702816942584
  C   5.03203242444380     -3.61224102125048     -0.24072223431081
  C   5.77559899819554     -2.42336375329851      0.34850096827714
  N   7.14203890038592     -2.32159959752994     -0.15694325985183
  C   7.66876830595037     -1.18509017562253     -0.19639474909614
  O   7.09505099292945      0.01217087421505      0.10199336807555
  C   5.72386084594888      0.00081184886526      0.05583979106789
  C   5.10479725272836      1.30607712253095     -0.09604026904907
  O   5.63532579605388      2.36871200828657     -0.13942784948867
  O   3.71877042072428      1.23604238316502     -0.16903133329107
  C   5.01609570392224     -1.14027854763547      0.12351203411474
  C   9.05168294271423     -1.02231239586982     -0.60144020798056
  N   10.14561320699776     -0.90434686439114     -0.91523706129727
  H   2.49318751933611     -2.55831985473022     -1.16229554806826
  H   1.88901250153420     -2.33468424786602      0.46229844068715
  H   3.09599720131572     -4.54245763150383      0.02118844595908
  H   3.67190676615046     -3.65818563726758      1.41961425137911
  H   5.00981305932113     -3.52073200626029     -1.33036395604353
  H   5.57648209832136     -4.52421205084155      0.00196263263662
  H   5.85713509399605     -2.58722134063498      1.43132025439251
