23
Coordinates from ORCA-job 4616optt
  Br  1.68396159907239      0.54183878503076     -0.68930259477431
  C   3.44141713626127      0.06901693680010     -0.21748772077746
  C   3.86472865668427     -1.24647204780962     -0.16468068293086
  C   3.02642127773912     -2.36265975395715     -0.44004305072002
  C   3.46714960761901     -3.63076188445932     -0.26063817735113
  C   4.75814942719227     -3.85624945106700      0.26647277157372
  C   5.57303696958480     -2.80357015662782      0.50922638069454
  N   6.85607901138841     -2.98408573239924      1.03963896407577
  C   7.83548775591981     -2.96432121238792     -0.02489537620600
  O   8.04064796260100     -3.90196045095125     -0.72123845862947
  C   8.42028154361766     -1.55927633546162     -0.19665974145766
  O   9.57996652752055     -1.41299371635576     -0.50728844990508
  C   7.49692113201498     -0.47625287435656      0.06285383491555
  C   6.12932884158962     -0.40521737209189      0.22371336255046
  N   5.60473619292179      0.83921157640892      0.38172810729870
  C   4.34052273811213      1.06303735160990      0.17606336601651
  N   5.18931067668923     -1.49641299454234      0.20183857297880
  H   2.02614752268743     -2.15457981781006     -0.78620361080847
  H   2.82037781096670     -4.46915535221679     -0.48175011563444
  H   5.12586455592499     -4.84062839145774      0.51045582778337
  H   7.06676889939198     -2.23694485050726      1.69439357449876
  H   7.95720642356748      0.50215236437135      0.06493861346328
  H   3.98948773093304      2.08128538023834      0.31186460334545
