26
Coordinates from ORCA-job 4617optt
  Br  1.03771450652339     -0.33603736965226      0.26452429330490
  C   2.90052787918435     -0.24063956645349      0.03470050462841
  C   3.69076129752063     -1.33233445098291      0.02411202547472
  C   3.36779725402164     -2.79350451799051      0.16781321849563
  C   4.64553732593033     -3.47151620748973     -0.36299387553290
  C   5.79897068552148     -2.46374405825563     -0.12401417980925
  C   6.47794929934309     -2.67038211396000      1.18839077889092
  N   7.68041540050697     -3.11321479086075      1.32409057314251
  N   7.86990109283722     -3.19515994205746      2.67703177235862
  C   6.78879332841247     -2.79170084138737      3.41502063779795
  O   6.64234372777293     -2.73095851456075      4.61192607948663
  N   5.88009736789001     -2.46811051100249      2.40872621950932
  C   5.09255337788256     -1.12027398991850     -0.16787093184566
  C   5.63916672542056      0.10392667205548     -0.32926834509155
  C   4.79343462420999      1.28482233335113     -0.32517702532157
  O   5.14869295919188      2.43497424262486     -0.46890820282093
  N   3.42767038713220      1.00025753109442     -0.13167359772238
  H   2.48028247651537     -3.08280736362959     -0.39452443532418
  H   3.17936737959580     -3.05582570633262      1.21311180797455
  H   4.54816154391391     -3.62759912946049     -1.43734794526881
  H   4.84209787259830     -4.43627834752545      0.10108541571571
  H   6.57579087133411     -2.54536699945689     -0.88282218320595
  H   8.75151963954884     -3.49368918301425      3.05388895247423
  H   4.98801631497418     -2.04027170993386      2.59220142419219
  H   6.69950419893893      0.26253940315537     -0.46973079716457
  H   2.82193246327883      1.80989513164378     -0.12929218433855
