22
Coordinates from ORCA-job 4618optt
  Br  1.17395235236506      0.07745068941278      0.00703309184453
  C   3.03096720235841     -0.14866224639074     -0.01173014446234
  C   3.63252518136005     -1.35526649386777     -0.01828469850471
  C   3.20194341572087     -2.73280761922961     -0.01569154090740
  C   4.32214650897401     -3.49902079436769     -0.02337972454859
  C   5.50726814600117     -2.65561817389558     -0.03075443404165
  C   6.87963026683549     -3.06089992558373     -0.03644536754355
  N   7.90931335677169     -2.28620713946451     -0.04198234876573
  N   8.96833683103435     -3.16263312556545     -0.04379462725350
  C   8.57814937658974     -4.46310785955253     -0.03919724597553
  O   9.19977117236442     -5.48065195986676     -0.03867400928562
  O   7.19363067143563     -4.37984283053607     -0.03469344212995
  C   5.07941831371206     -1.35730124281322     -0.02831799764495
  N   5.77409999059515     -0.17674844914412     -0.03215869282343
  C   5.17217583807712      1.05350567154550     -0.02787178071720
  O   5.75385201195390      2.10909447060352     -0.03225925838140
  N   3.77155969114273      0.99518565591117     -0.01733631259064
  H   2.17779422709595     -3.06644679199769     -0.00959655364823
  H   4.35815296980773     -4.57787023646123     -0.02402253230424
  H   9.91715679897541     -2.83525572371776     -0.04745876838931
  H   6.78812780599364     -0.19619555922553     -0.03871930436806
  H   3.31802787083539      1.89729968420703     -0.01366430755851
