24
Coordinates from ORCA-job 4620optt
  Br  1.19322327859313      0.01094829048890     -0.03851528124280
  C   3.07394285431263     -0.09414761365655     -0.13957259454051
  C   3.72349727854749     -1.29066143063586      0.05250236251657
  C   3.25913566337559     -2.68232978357914      0.36047481470291
  C   4.58071436042288     -3.47762249896798      0.26553102985751
  C   4.86767776085680     -4.40562504905531      1.43340164423813
  C   3.97073276201014     -5.59928404379208      1.44838847125946
  N   3.04689281697501     -5.75474904962431      0.58374938689163
  O   2.35453267356664     -6.93186967338330      0.76523223581476
  C   2.78034511307502     -7.70893858382066      1.79956412115476
  O   2.30455691773540     -8.75573614132862      2.07431622278866
  S   4.12925080882123     -6.87845899645954      2.61673387523428
  O   5.65057635797722     -2.50935253612897      0.22468018285669
  C   5.10777066776131     -1.28931021543915     -0.00926901357679
  C   5.80904116516774     -0.12786842875596     -0.27296895095871
  N   5.15802017180760      1.01697653462184     -0.47122797003903
  C   3.83511264165562      1.04403964016194     -0.40790087648106
  H   2.51602228376132     -3.05026321291481     -0.34460085612895
  H   2.81612563561342     -2.73687665179681      1.35888795104123
  H   4.61499520314705     -4.04077181104659     -0.66880742425738
  H   4.76364394818924     -3.85986651892502      2.37535206154172
  H   5.90452545711423     -4.74507823443597      1.37556050124044
  H   6.89055374318519     -0.11497511884703     -0.32567537020408
  H   3.34811043632800      1.99682112732107     -0.57583652370946
