21
Coordinates from ORCA-job 4622optt
  Br  1.18973561998085      0.02582405651083      0.01313980222877
  C   3.05609385647253     -0.05158019727096     -0.05614982475684
  C   3.73235910986114     -1.19088904967974     -0.10808921760536
  C   3.23718753585901     -2.63785442504948     -0.14734501692091
  C   2.46010108321083     -2.95068439233167     -1.34664374205712
  C   1.83963664802343     -3.21668880823963     -2.33363467217772
  C   4.56306873467236     -3.36522012741614     -0.10351656148534
  N   4.94680219789582     -4.60010583407849     -0.07810617349656
  S   6.58843436607626     -4.58206109660707     -0.05544494108658
  N   6.82584417642058     -2.94813187802291     -0.07812103255585
  C   5.63407917208156     -2.43412233699350     -0.10381988741167
  N   5.14889496681386     -1.13955924995436     -0.12333677970436
  C   5.91301905173668      0.03119737254989     -0.10065297485428
  N   7.16932010078362      0.10189725628083     -0.09567776939972
  C   5.09952652836374      1.31878471438072     -0.07218544985173
  O   5.60758318001442      2.40367835697136     -0.06817401808367
  N   3.72751814038519      1.16204178208134     -0.04090254205059
  H   2.63698581503602     -2.85789985488046      0.74024206135778
  H   1.28437853201543     -3.45528238922842     -3.20959619877624
  H   7.61562176523473     -0.81434336289377     -0.11072284021900
  H   3.19680941906188      2.02099946387167     -0.01026222109301
