24
Coordinates from ORCA-job 4624optt
  Br  1.18730881873286     -0.34307382759396      1.32105073881661
  C   2.97938368590669     -0.32875844359946      0.73040239970508
  C   3.63884927850045     -1.46193036170219      0.43421267285106
  C   2.99594560138802     -2.83419294339523      0.61913703644107
  C   2.84372821195332     -3.17347959801301      2.03514034961274
  C   2.73759667627289     -3.48121015835014      3.18672226899760
  C   3.84401799174198     -3.91002659607323     -0.07612785861635
  O   3.79174191624729     -3.72079250224459     -1.47569206340602
  C   5.01232342854874     -3.10783442790209     -1.87287664935184
  C   5.61445235808781     -2.68900898752940     -0.52849647350652
  O   5.18716853822427     -3.76044777835136      0.29554549630390
  C   5.01013869735362     -1.38875386554250     -0.05093135076255
  C   5.73199885969158     -0.26027947430769     -0.15582792840469
  C   5.28323172176801      1.08225106210752      0.17148392624171
  N   5.95285755290576      2.15942195961383      0.13030730382563
  S   3.58847653740242      1.28816238654150      0.65240593668542
  H   2.01149853666745     -2.83738501320539      0.14452105943128
  H   2.64204539025142     -3.74718015568779      4.21236980494919
  H   3.50979789656308     -4.91196642414847      0.18649852865009
  H   4.80192090564483     -2.26934106641542     -2.53491307265873
  H   5.65119041722344     -3.83732592695637     -2.37479256594813
  H   6.70097952474155     -2.65215763567861     -0.52461113356526
  H   6.75331831475595     -0.32243045238921     -0.52022056607697
  H   6.90902913942647      1.98474023082328     -0.17530786021431
