23
Coordinates from ORCA-job 4625optt
  Br  4.17856855908707     -0.21168270593493     -1.99498760700633
  C   2.91587332351337      0.18249455882809     -0.65966619073436
  C   2.22030029559422      1.36979856520239     -0.59328008741484
  C   2.54243843818155      2.43013237368667     -1.53659419281188
  C   1.98096079197818      3.62081289652417     -1.80198364210953
  C   0.82729565270325      4.24373292396506     -1.22722351822590
  C   0.13301047423873      3.73295478088752     -0.20615016656316
  O   -0.94618941457586      4.39852600733791      0.27946662007850
  C   -1.46398579100744      3.70226298225631      1.36356271026359
  N   -2.46013081283772      4.07478813363700      2.02891186124914
  C   -0.64835380018338      2.51366480610937      1.53560463352631
  C   0.30866924951390      2.52013998503539      0.59004912894852
  N   1.27573834142332      1.50711711586071      0.42608278147564
  N   1.11347336741682      0.57290218236650      1.38491715345902
  C   1.78729494604180     -0.51274621426319      1.35414607892969
  C   2.73504654762556     -0.88456972854737      0.30527332571391
  O   3.28744005911700     -1.96504700502644      0.28594450225241
  H   1.61390301974171     -1.21563571898616      2.16060150301145
  H   2.47370808670911      4.19682238642041     -2.57629776346841
  H   3.41094802210873      2.18856621592256     -2.12750934958862
  H   0.49193891244266      5.19148757289718     -1.62613723376994
  H   -0.82579019179748      1.77877948091391      2.29797035197426
  H   -2.84215807703511      4.94969840490693      1.67429910081052
