21
Coordinates from ORCA-job 4626optt
  Br  1.08156622954502      0.17787519953541      0.05255569434991
  C   2.96793213557475      0.08926326057791      0.05502897236459
  C   3.61351080621921     -1.13657088135903      0.05645533519904
  C   2.96479543153612     -2.39634998459443      0.05723318884971
  C   3.69732697986645     -3.54390912406845      0.05861833819273
  C   5.11022804748958     -3.50980346162425      0.05909811677825
  C   5.73605051217897     -2.30207873420545      0.05842396139486
  O   7.06199071364465     -2.27090984513242      0.05871443648003
  C   7.85328517817850     -1.08165095677061      0.05851211288754
  O   9.02970950281281     -1.24737505062942      0.05875263890287
  C   7.08615459204824      0.11358592241841      0.05793998462148
  C   5.72062543527161      0.08883514902761      0.05728377185241
  C   4.91097033108010      1.26609098480849      0.05640903437242
  N   3.61372015388759      1.25298521058235      0.05519184428044
  N   5.01743573454603     -1.11719950911300      0.05740751131400
  C   3.03691458745387     -4.81934667527522      0.05953947173724
  N   2.52728316094792     -5.84615890448627      0.05970442209131
  H   1.88693506343631     -2.41540279717275      0.05683634473375
  H   5.71104018210510     -4.40509252756870      0.05989137778886
  H   7.61111427710768      1.05472216873554      0.05776041325632
  H   5.41741094506944      2.22349055631429      0.05664302855222
