28
Coordinates from ORCA-job 4631optt
  Br  1.29110440896680      0.46359213968242      0.05781004239820
  C   3.13602742277125      0.10480385549674     -0.02118311050926
  C   3.67686693135989     -1.13826385040677     -0.09968351133128
  C   5.12442457805279     -1.23494249528540     -0.15573699479880
  C   5.84102153711093     -2.55501474775286     -0.29937550053516
  C   4.99831087982963     -3.70128343211079      0.23518156071614
  C   3.64693559954208     -3.66474720569013     -0.46056083546490
  C   2.84442492488024     -2.40002640516721     -0.08257217918793
  C   2.11193430116686     -2.65182618109418      1.24964362566055
  O   0.98007925929215     -3.43860547841546      0.90418941208521
  C   0.47675839742389     -2.99407924212610     -0.33558462285739
  C   1.66481492045176     -2.39424203856583     -1.07120962846347
  O   1.70820907152013     -2.06327889774897     -2.21720984244019
  C   5.83491487969818     -0.10105247529223     -0.08904439495978
  O   5.29834766747135      1.12314910117524     -0.00063554351044
  C   3.94210159677995      1.32829010472339      0.01655393883214
  O   3.53344073365588      2.44805490296865      0.07239163497058
  H   6.80687465146775     -2.49935351035253      0.20428182639428
  H   6.04206677530843     -2.74219708516169     -1.35846932793921
  H   4.87567766652263     -3.61079834736993      1.31809803499038
  H   5.49312306404330     -4.65399345430735      0.04543784940532
  H   3.03848071742351     -4.53499624118543     -0.20699774389639
  H   3.80193931346211     -3.67635841999645     -1.54308970321142
  H   1.80645813183336     -1.71804531101108      1.72610436832080
  H   2.71173494777132     -3.23267865821934      1.94896159903421
  H   -0.29023255408822     -2.22157877982453     -0.21607815811556
  H   0.05521780190405     -3.83548018865455     -0.88451455236094
  H   6.91594237437799     -0.06604765830762     -0.10370824322570
