22
Coordinates from ORCA-job 4640optt
  Br  0.89813779343412      0.00999793393280     -0.41187436238767
  C   2.78422765640515      0.03850511653579     -0.26406689615455
  C   3.49609394141344     -1.04623281816372      0.12613710934990
  C   2.85606433714679     -2.32393043151524      0.44814790244279
  C   3.51978538291050     -3.47424552597755      0.47200641938040
  C   5.01198536040458     -3.50391461255887      0.17429624055767
  C   5.64365890377496     -2.20643852398936      0.72695284404514
  C   4.94678034503351     -0.97859427161018      0.20122096270804
  C   5.69281048185970      0.09831485586604     -0.11583358123794
  C   5.19802940683880      1.38380248752912     -0.56503016558396
  O   5.87437190023374      2.33816716807130     -0.84333278170087
  S   3.41589400149609      1.57252292729109     -0.71240102820382
  C   5.23672837973267     -3.61167853007554     -1.27548657463963
  C   5.41037861281227     -3.65519512510876     -2.45754387589502
  C   5.63919999522074     -4.65069575915104      0.85399190135267
  N   6.12789400922829     -5.52549084747312      1.40827915689854
  H   1.79108131158167     -2.32305482830524      0.63240648331846
  H   3.02503069070578     -4.41602261953130      0.66517510380216
  H   6.70454346331810     -2.17786563005982      0.48694903671224
  H   5.53520789794927     -2.23478024222549      1.81494688611074
  H   6.77278251063976      0.05207594703767     -0.03683328972692
  H   5.56131361785998     -3.70124667051854     -3.51010749114836
