24
Coordinates from ORCA-job 4643optt
  Br  0.78850440762291      0.02151474579930     -0.29457465406211
  C   2.67641799366434      0.00568242594620     -0.19640684806224
  C   3.37989798938755      1.20082689592178     -0.12045129166732
  C   2.66675393294265      2.52375293569797     -0.08647335326705
  C   3.57710737671020      3.70715833304433      0.00954713930999
  C   4.89815650352680      3.62724101664765      0.04639891261981
  C   5.65228257318809      2.33791064559188     -0.00032213069800
  C   4.78027412731825      1.11385554801320     -0.07618576495608
  N   5.42306734679393     -0.04419689314824     -0.11077774567169
  C   4.73157688604547     -1.17828973817080     -0.16767313065257
  C   3.33917167777125     -1.21869719747754     -0.20596257966893
  S   2.47798169681378     -2.73103095438110     -0.28804796673291
  C   3.77807108205052     -3.93840705628692      0.00434279223091
  N   3.47381590407013     -5.12000478420563      0.32301959591185
  N   5.12235777381365     -3.60912040685947     -0.17480296899887
  C   5.52785296016731     -2.40671331318994     -0.23198377967918
  H   1.96384326196223      2.52358019815952      0.75392042409699
  H   2.03423662275862      2.61004765168160     -0.97655789525272
  H   3.09499449682801      4.67703921106668      0.04901623341146
  H   5.48762535900986      4.53435263061307      0.11285519850475
  H   6.29836978650576      2.24285368497683      0.87742371751760
  H   6.33176618723741      2.32486018539657     -0.85800396519834
  H   2.47279337144234     -5.24179323343451      0.46240079040896
  H   6.59708068236881     -2.23842253140241     -0.34470072944432
