25
Coordinates from ORCA-job 4646optt
  Br  0.98839338122992     -0.14438522421301     -0.30791767784227
  C   2.87567879218818     -0.12510248273629     -0.22198023834342
  C   3.59716517063906     -1.25493933525111     -0.07620167394102
  C   2.91060208319845     -2.59203634278408      0.08647719816508
  C   3.78270725271556     -3.79289881695624     -0.26622725361621
  C   5.15704418813838     -3.67785432474728      0.37063705275740
  C   5.86156360195555     -2.44478592398885     -0.17460004643708
  C   5.06116657946185     -1.16799196805887     -0.06492407209462
  N   5.75403927534627     -0.08923323370690     -0.02254033383012
  C   5.22364659802996      1.18594511422138      0.04780191801462
  N   5.87116841644742      2.23426246737093      0.31324313706942
  S   3.49886233817288      1.47016329512443     -0.33081542103735
  N   2.43413571285871     -2.72269322964308      1.47614369050057
  N   3.05511217113136     -2.26166010166546      2.53124129721231
  N   2.34318898407478     -2.64215965079966      3.53574541481951
  N   1.29735229425686     -3.33249203860273      3.08617714523428
  N   1.35333594755217     -3.38546114500320      1.80034449481188
  H   1.99799898669198     -2.61897070182376     -0.50496677892958
  H   3.87748978155124     -3.82291173870147     -1.35481390038578
  H   3.25927848380185     -4.69869372046852      0.04199977012580
  H   5.74914540063229     -4.56638934477184      0.15282501847142
  H   5.06453461513068     -3.61152271343902      1.45716363960734
  H   6.05983488160928     -2.58995888030099     -1.24308722155512
  H   6.82374214169273     -2.26943670572459      0.30189020251078
  H   6.85481292149255      2.00020674667023      0.44938463871217
