26
Coordinates from ORCA-job 4650optt
  Br  1.63459805516634     -5.89082702658616     -1.31387473374434
  C   2.79636454611773     -4.69884010861217     -0.42225070651648
  C   2.48602130491335     -3.39471474018751     -0.31943127094942
  C   1.30246352564273     -2.67019496685817     -0.86839057284217
  C   0.46884181665024     -2.35716562527767      0.16586692531642
  C   0.90907827583135     -1.06895311205927      0.65154831428536
  C   1.74976645839547     -1.32965019982355      1.69443648512069
  C   3.17175724722938     -1.39004768606342      1.21220049243820
  C   3.46076930428036     -2.47742421365492      0.38218298667244
  C   4.86187595515157     -2.95048376402722      0.31778409238450
  C   5.04248399679583     -4.40009275983756      0.39028057179077
  C   4.05114048995141     -5.23704486481236      0.05611035590081
  N   5.92213766221038     -2.23485206683453      0.23187150364489
  C   5.84591041160305     -0.85707297934901      0.04086191868244
  N   6.23615739934754     -0.31955034208407     -1.03398845897908
  C   5.35317525321454     -0.18777506826050      1.25740504103323
  C   4.13116044268424     -0.45518155133995      1.74787723139041
  H   1.58239547699257     -1.86401606336038     -1.54005212627921
  H   0.22517554929088     -3.11420876034591      0.90257989304349
  H   1.16549583360660     -0.30968071735701     -0.07841349248155
  H   1.48479038627718     -2.16209293538016      2.33960713218293
  H   6.03776236683242     -4.74998409859680      0.62869438863413
  H   4.19798539626024     -6.30814593883313      0.04322229328064
  H   6.15978464349534      0.69468613558815     -0.96761979505991
  H   5.99678565214844      0.53754309324652      1.74252807683480
  H   3.78312254991075      0.10577036070678      2.60696345421601
