25
Coordinates from ORCA-job 4654optt
  Br  1.26071721169957      1.33180041299603      0.10617222287755
  C   3.06289489847523      0.75169921990365      0.07838269752517
  C   3.38681621176645     -0.58360865787723      0.05485529984058
  C   2.41463904969914     -1.67572354841841      0.05579087480645
  C   2.62610905657312     -3.00179715669276      0.03739866006445
  C   3.84607352515543     -3.80402701368083      0.00971362556167
  C   5.11761473488227     -3.38154884817221     -0.01138582775017
  C   5.56238321833489     -2.01117526579152     -0.00896809125594
  C   4.77883108577717     -0.86143073588331      0.02404907553995
  N   5.65283372543818      0.19494723937579      0.01981958066123
  C   5.21544346311011      1.48362090452877      0.05302127295979
  N   3.96233745108994      1.76694256924524      0.08131668599646
  N   6.94276990322002     -0.18465922625722     -0.01541049292406
  C   6.88705263193403     -1.50876995827868     -0.03314354199097
  N   8.03766357346221     -2.26482991204983     -0.07224387402234
  C   9.31636493964477     -1.73481301918085     -0.11727226869627
  N   10.40357657011136     -2.37650300121870     -0.16568006981235
  H   1.38270907029042     -1.35308373280887      0.07518866452781
  H   1.72084201111576     -3.59915835780363      0.04395232885718
  H   3.68266698299854     -4.87413295422267      0.00374885101498
  H   5.88923596198989     -4.14379849840791     -0.03323727795184
  H   5.98284379838166      2.24616703134682      0.05384735750299
  H   7.93927537394714     -3.26711987223905     -0.08455322450673
  H   9.32087671818518     -0.64859562362333     -0.10691307535215
  H   10.26142883271747     -3.38740199478930     -0.17044945347341
