28
Coordinates from ORCA-job 4655optt
  Br  2.01857896359401      2.01581867761403     -2.15059078826998
  C   3.51608126071009      1.40337048507892     -1.16652075700048
  C   3.59291443542221      1.56735273771149      0.15468896746626
  C   2.85413951792469      2.65533973306627      0.90937837090321
  C   3.48441601338651      3.88931950596709      0.41277143652780
  C   4.13884281511498      4.68093953807167     -0.20990697875144
  C   4.97938780181181      5.48819657561084     -1.09772960506268
  C   5.66493875648738      4.59143005187488     -2.11698455187517
  C   6.96234177035406      5.00125891019513     -2.74928171249214
  C   6.93576001658042      3.89456098747614     -1.73778345828364
  C   7.17423763311570      2.43907251454878     -2.10913720620342
  C   6.21865163183654      1.59753202991322     -1.29309438052738
  S   4.84882709229737      0.95559875900122     -2.19866473759022
  C   6.29004583441689      1.53183526020905      0.03248336002631
  S   4.99210179650572      0.82126901778227      0.95853438117552
  O   4.94147479855117     -0.59192581074281      0.72868753990470
  O   5.07252418312419      1.33956117807165      2.29454200240318
  H   2.98621699332528      2.53030889431250      1.98234038659562
  H   1.78856661802603      2.63355117815555      0.68019509610872
  H   5.73434243011425      6.02724244528374     -0.51906097111854
  H   4.37178568978639      6.24085726463040     -1.60550985477177
  H   4.98113758343950      4.02901564926153     -2.74365177995249
  H   7.39828070654087      5.94493251156170     -2.44952824969134
  H   7.12235759756799      4.73696441488811     -3.78582149517633
  H   7.30712471126880      4.15137268273236     -0.75153837436773
  H   8.20653541368991      2.15751576356061     -1.89650347337726
  H   6.99859497575671      2.28631406517906     -3.17499933562059
  H   7.05079295925042      2.03439497898454      0.61668616902131
