27
Coordinates from ORCA-job 4661optt
  Br  0.82510368967878     -0.27030725572881      0.48551623656512
  C   2.68477047885838     -0.18758918847745      0.27103056736260
  C   3.48746785287020     -1.26225601099389      0.33594759204410
  C   3.30093537252186     -2.67368150283039      0.56119035159579
  C   4.53289194428888     -3.24099117280878      0.49590368574456
  C   5.56093413908369     -2.23945754183979      0.22791126271539
  C   7.02707587947532     -2.51849848289171      0.09767194953894
  C   7.58267708396892     -3.26177727984922      1.27487063980555
  C   8.54992935547620     -4.23186554503185      1.35820988615032
  C   8.71655708768929     -4.55598832592295      2.73181862610249
  C   7.84177943260142     -3.77727476609852      3.44149155191427
  N   7.16318749658396     -2.99547113768534      2.54804077097366
  C   4.91648624942829     -1.04849048445066      0.13901167874194
  N   5.36395800268622      0.24162507452339     -0.09974339019986
  C   4.55410735244968      1.33987969977631     -0.15414192132199
  O   4.94065861478494      2.46824462723125     -0.35039079041244
  N   3.19834159605379      1.05893460403603      0.03972491602985
  H   2.35567665870106     -3.15756496262903      0.74420416272714
  H   4.75354946314857     -4.29100913179013      0.63010720195845
  H   7.57014234855186     -1.57644982479568     -0.03626729827845
  H   7.22679843053732     -3.11277220388328     -0.79752089562631
  H   9.07956809672801     -4.65802893059835      0.52163941523240
  H   9.39602865588381     -5.28024091524640      3.14875066106103
  H   7.63995861131417     -3.72151619654201      4.49727733673794
  H   6.41233725284112     -2.36288215153751      2.76961909644315
  H   6.34313686188337      0.43276414491194     -0.25115219012786
  H   2.59094199191083      1.86266486115287     -0.01172110347777
