29
Coordinates from ORCA-job 4662optt
  Br  1.15716315918079     -0.21434409489414     -0.96302085030170
  C   2.96966853589879     -0.06577019472252     -0.43311636455809
  C   3.73987704425662     -1.15591972148404     -0.25586144386805
  C   3.14114713873188     -2.54158166157736     -0.36283133846251
  C   4.04850713460648     -3.63651092055383      0.10098517758386
  C   5.34766327491898     -3.48016314595984      0.30333460185975
  C   6.06532969629098     -2.19376196413615      0.03355452758739
  C   6.80406292843881     -2.20187643389383     -1.32909788260049
  C   7.66361169612397     -3.45137809631778     -1.61497002399177
  C   6.55061844068036     -3.88016058074968     -2.59095389218324
  N   5.98782958332166     -2.51672878040872     -2.51270808170731
  C   5.14774684366075     -0.98691199441125      0.08248229067008
  C   5.70455818990716      0.20176206848859      0.38963729593850
  C   5.04939331927857      1.49554814227791      0.42682149309963
  N   5.52427307895409      2.60278408983866      0.82939065469777
  S   3.40743162050529      1.59218613146493     -0.22930163265879
  H   2.81820160440034     -2.73477248520332     -1.39318731692147
  H   2.21903113325940     -2.56983794214187      0.22373392565908
  H   3.58667271925969     -4.60146295083786      0.27732062752747
  H   5.94299979966937     -4.32003993760739      0.64326831827832
  H   6.84470247494860     -2.05461683100330      0.78858808756644
  H   7.32368315767754     -1.24488151719471     -1.41871676967094
  H   7.86514491496958     -4.11266453063507     -0.77456430737009
  H   8.59831515883267     -3.20738580311876     -2.11400189808323
  H   5.90113572080743     -4.65494238270433     -2.17744092031658
  H   6.86388892742368     -4.16865533592680     -3.59410318417780
  H   4.98402796168671     -2.45181313666084     -2.39183530087134
  H   6.75952812899506      0.22821919570303      0.64834113570201
  H   6.48678661331468      2.49168081437033      1.14525307157310
