23
Coordinates from ORCA-job 4664optt
  Br  3.71204956108392      4.29604091102625     -0.18444334089210
  C   4.69700502373892      3.01908059589770     -1.13424823412766
  C   6.02863643485327      3.14689509129033     -1.40518101944780
  C   6.77906749162451      1.94914840918909     -1.83192806331320
  C   6.17023657619813      0.93484807672302     -2.46537843508587
  C   4.77691115365573      1.23544554312267     -2.83412419267545
  C   4.68570438881689      1.61446955262326     -4.13016651573713
  C   4.31956420795185      3.02584392757621     -4.32858106443169
  C   5.34529100194686      3.89777160662575     -4.28863459494166
  C   4.78666665747043      5.03848038889205     -3.53970828424863
  N   3.35622433889185      5.02431131717815     -3.63095013875864
  C   3.09200271009143      3.82356489277338     -3.96965966471009
  N   5.33697173760831      5.65524566374353     -2.58538015053396
  C   6.48541637665897      5.38458062105763     -1.89039812734194
  N   6.78595698426322      4.29825683506795     -1.27308984183673
  C   3.94496596703370      1.96336166155938     -1.82029009045500
  O   2.74271152119208      1.82524770404382     -1.77953295036919
  H   7.84212879649840      1.95082034883261     -1.62969850990242
  H   6.70683998062344      0.08262196314789     -2.86095782101886
  H   5.39994447500415      1.20383103737686     -4.83759762390047
  H   6.39910420712965      3.66906044439812     -4.34970680211801
  H   2.08448227072298      3.42778793270520     -3.99472837200118
  H   7.14011813694123      6.23928547514912     -1.74561616215228
