27
Coordinates from ORCA-job 4665optt
  Br  1.12484584226368     -0.30752711285189      0.00454407021557
  C   2.98993342668396     -0.06512965458369      0.01229883469113
  C   3.61572922191454      1.03248206072713     -0.42469725380414
  C   2.88772667257729      2.14934584324785     -1.11792798413076
  C   2.63902275167502      3.34815370695462     -0.20438203166732
  C   3.91288402189509      3.73783446940015      0.54195395345012
  C   5.14911877515226      3.66774638686882     -0.35975789965137
  C   5.83270632387797      2.30936120902570     -0.40689680700465
  C   7.17963180883404      2.32946679804682     -0.49745642800447
  C   8.09695298600634      1.20711266229704     -0.45108578799814
  O   9.27966917642900      1.27021858664900     -0.66403170433910
  S   7.42238665456063     -0.34947888077179      0.09420068342581
  C   5.71216815862913     -0.10633355651284      0.04400043881941
  C   4.95312463661609     -1.32579779523043      0.38777707881030
  N   5.36440953738990     -2.48737066261839      0.63414969058149
  O   3.59835192568169     -1.14355123680254      0.52251032938530
  C   5.07678817018314      1.06159571674213     -0.26611316404832
  H   1.94679306081916      1.77659525680153     -1.51647094074337
  H   3.48352922059928      2.45541274638407     -1.98034165768981
  H   1.84514447606610      3.10916767651784      0.50587918520469
  H   2.29035696491774      4.18727873173599     -0.81127933943043
  H   4.05849986942181      3.07901821085152      1.40176102563196
  H   3.81415178762941      4.74766375693860      0.94076526094299
  H   5.89777565546443      4.37646060822267     -0.00899276396901
  H   4.88607151645879      3.98785917666747     -1.37217833694413
  H   7.69150203687385      3.28049072382874     -0.59543020978423
  H   6.37272532137960     -2.57107542853614      0.55820175805048
