27
Coordinates from ORCA-job 4668optt
  Br  8.27171257045506     -4.03009539434393     -1.00906808255824
  C   8.52275157482185     -2.16826928035694     -1.24125078793667
  C   8.77338401284713     -1.36421657717764     -0.17016692179539
  C   9.63329963945723     -1.91287035089023      0.87129265813569
  C   10.60165845534581     -1.15875255170137      1.45927546916174
  C   11.86934878345255     -1.41670797185078      0.77983514229448
  C   12.41723900119003     -0.35405756873300      0.16835367008280
  C   12.75406021298994     -0.29557859249521     -1.30492882283075
  C   11.95849846161368     -1.30466042200643     -2.18736152659567
  N   10.92610145780697     -0.26639261326880     -2.38873833732268
  C   11.83658714990113      0.80406571105043     -1.93182118837368
  C   9.61949699772758     -0.30556732529601     -2.56265179356090
  S   8.87231252244517     -1.87090848412620     -2.97155355134321
  C   8.68627672204185      0.61062726287953     -2.08506239908077
  S   8.59596481210052      0.47937845919811     -0.38296778333052
  O   9.69513759982093      1.12651763610793      0.28751421045916
  O   7.26069065179300      0.76412604653912      0.05089409144752
  H   9.93325048071064     -2.92801933753025      0.63148139519457
  H   10.42505030242193     -0.15759782441743      1.81523099705693
  H   11.99885932010032     -2.41084126513663      0.36409729692465
  H   12.23201833970294      0.62183710359951      0.60470345487910
  H   13.80969607919974     -0.19403747912140     -1.55276034750582
  H   12.45927287878789     -1.54170190279051     -3.12684544914200
  H   11.57155444093622     -2.21314008346753     -1.73063285610337
  H   12.28156300407522      1.29291474938992     -2.80044098218167
  H   11.38753994267575      1.52085671528692     -1.25272775545401
  H   7.68967458557882      0.48309134065885     -2.48569980052127
