27
Coordinates from ORCA-job 4675optt
  Br  1.22296470478074      0.31029870170127     -0.10725014991345
  C   2.77573042979892     -0.43723658935041     -0.88426465774408
  C   3.62573449251994     -1.16914040347088     -0.11684313515620
  C   3.61726696781077     -1.54464690570692      1.25951887366402
  C   4.72296186465576     -2.32175845345971      1.47429993800186
  C   5.48960978515421     -2.48924307071136      0.26402657025574
  C   6.76365381955929     -3.25576104398953      0.11037754085108
  C   8.01273768376736     -2.35956913853802      0.13396277436075
  N   9.23728862321894     -3.15182215425307     -0.03033370672339
  C   10.24962011496121     -2.72270374733974      0.94215212023223
  C   9.45892257655536     -1.88349352204943      1.90387585718785
  C   8.23127955140069     -1.67518637158959      1.45438047809176
  C   4.83062581902517     -1.78312514528698     -0.69911107934582
  S   5.22827813743265     -1.57150548006480     -2.34918960615101
  C   3.92099272349055     -0.60707496980383     -2.87917511764636
  N   2.91587589029079     -0.16586607305660     -2.20284199248396
  H   2.86176640637092     -1.26195603556196      1.97389554906849
  H   5.00170308569667     -2.77162221666896      2.41789975683812
  H   6.76198234094615     -3.80810408592585     -0.83457188348611
  H   6.86658760690971     -3.99379708511029      0.90787918831711
  H   7.89660092758968     -1.60234779210907     -0.65725971176232
  H   9.58040207000122     -3.14165897176562     -0.97880903399385
  H   11.05714665296963     -2.13445618524997      0.48706705416882
  H   10.71527773239647     -3.58221876096469      1.43269211754618
  H   9.86994358982902     -1.50662441000422      2.83017017225949
  H   7.45715517051895     -1.09782982368604      1.94157837176455
  H   3.98289123234911     -0.35155026598371     -3.93212628820150
