23
Coordinates from ORCA-job 4679optt
  Br  1.13043645176029      0.76367072664347      1.74497643101333
  C   2.77617746067885      0.38220054460323      0.92984169498840
  C   3.14939720147944     -0.84669460118295      0.48519618586042
  C   2.22001444043709     -1.96708495103757      0.49560473287724
  C   2.31917824501445     -3.17913848116071     -0.12479570718882
  C   3.60846676104875     -3.35725797519002     -0.79246315675135
  C   4.67778659148604     -3.11070156743678     -0.01836824268442
  C   5.39472828092635     -1.87115481839671     -0.29515597747893
  N   6.60178613604724     -1.50312201200191     -0.53183048312340
  C   6.62197272581628     -0.09245011502898     -0.45395300869750
  N   7.58342749764132      0.69470861532430     -0.66131780608391
  C   5.24856884321792      0.33773530988304     -0.04159866922304
  N   4.86211757178375      1.46159029176108      0.38789977507529
  N   3.54610083158268      1.50633619618017      0.77426950252945
  N   4.46965801524101     -0.82975454123693     -0.11462794910318
  C   1.20559428840165     -4.05575324984507     -0.25099327594368
  C   0.28887252731809     -4.82048531670221     -0.37512445271534
  H   1.27075176756312     -1.72872177793754      0.95655195963488
  H   3.65294799886908     -3.24643381136928     -1.87172634963236
  H   4.57899402731368     -3.28372367071107      1.05051176270933
  H   8.41284159431832      0.15795258929675     -0.91627020090860
  H   3.28987319526808      2.35154230343152      1.25565024050091
  H   -0.52369245321352     -5.49825968788580     -0.48527700565472
