24
Coordinates from ORCA-job 4680optt
  Br  0.94634033813236     -0.17514802932595      0.03357671046903
  C   2.81638191292042     -0.16100071262896      0.01569950349021
  C   3.47693583527454      0.99411367887499     -0.08342420233975
  C   3.03594829008412      2.42215538076917     -0.23151532270138
  C   4.34755935166041      3.25830450459391     -0.13023062598671
  C   4.48499834714585      4.27135714700033     -1.16919284065898
  C   4.58817956656913      5.09591395883415     -2.02936761480170
  C   5.44649680292720      2.21379584643582     -0.17641494509423
  N   6.69646088151466      2.39173247731486     -0.23399480231027
  N   7.45291276599560      1.25509943855947     -0.22235839469149
  C   7.03579413385393     -0.06381682517011     -0.10904628724597
  N   7.78161698828235     -1.08395368703445     -0.07118118617631
  C   5.54703844239409     -0.22589549997764     -0.04213922226512
  N   4.96996252246073     -1.35473770521562      0.04977865663596
  C   3.55989020832995     -1.43608220691070      0.09980541426015
  N   2.94530175688315     -2.53843663911099      0.20400676031627
  N   4.86207754987174      0.96178329541682     -0.09963733338265
  H   2.31109547759672      2.69561493523658      0.53247372231754
  H   2.56041356734347      2.56102644646608     -1.20298908879407
  H   4.39640696607641      3.74846703702929      0.84527684444053
  H   4.68849928165949      5.83101845255111     -2.79221732435903
  H   8.44204789499566      1.43427028092542     -0.27430961851449
  H   8.77035235908846     -0.84426192182785     -0.12904752029656
  H   3.62528875893945     -3.29631965280573      0.24244871768903
