25
Coordinates from ORCA-job 4681optt
  Br  0.97346679066164     -0.18346589250773     -0.44955175987995
  C   2.85749751478907     -0.27114311768505     -0.26237917942425
  C   3.48166663400272     -1.40144884034643      0.25274824588640
  C   2.73472490379078     -2.61443878609351      0.73512495411608
  C   2.70842607339118     -3.75476595549603     -0.30628442624729
  C   1.80852518679495     -4.81877771671623      0.13969243657840
  C   1.06487317826052     -5.66572933181089      0.54057552225203
  C   4.09722814466300     -4.28525873791896     -0.55883553090466
  N   4.32865997475525     -5.33514531641714     -1.28004926300048
  O   5.66256677906471     -5.50609080793053     -1.28564395227785
  N   6.28475425714499     -4.55230890626567     -0.56483115535487
  C   5.35464256696612     -3.78126900434955     -0.09621419145492
  C   5.65626941681778     -2.58430113561821      0.74864484678843
  C   4.88634466071587     -1.36883371549434      0.28562867832636
  N   5.61120244280847     -0.32651839141476     -0.09786638068270
  C   4.97573095131289      0.74877774345967     -0.55283950799065
  C   3.59994878084065      0.82558218723601     -0.66889610288905
  H   1.70683245558188     -2.35394924507814      0.97291059325252
  H   3.18571383471800     -2.99765857185371      1.65261370838758
  H   2.32124522032112     -3.34821511398025     -1.24629761017131
  H   0.40728819398232     -6.42868880874674      0.88303451006926
  H   6.71937421867135     -2.36606302969617      0.68798947381110
  H   5.41571055485645     -2.80715923975917      1.79206802094437
  H   5.59512159837110      1.58793885621254     -0.84810030600819
  H   3.12018566671714      1.70893087827106     -1.06424162412635
