29
Coordinates from ORCA-job 4686optt
  Br  1.19354553494335     -0.09762580599129     -0.39465312942538
  C   3.06077385093387      0.09516136888533     -0.21644462360255
  C   3.67654329652620      1.28299255056191     -0.05685845864304
  C   5.10682672134816      1.35709151446698      0.23526624063905
  C   5.48256858092278      2.78588381554349      0.52644841739778
  C   4.37920657948145      3.56764282846815     -0.20006858160715
  C   4.74890457988762      3.72071866846460     -1.60794215247091
  C   5.08065315169037      3.81648649236269     -2.75484076542968
  C   3.09747079143344      2.68631421900414     -0.02028388734651
  C   2.46082299807930      2.96994492010179      1.37008538078083
  C   1.38342404844652      4.01257249487532      1.08370577397697
  C   0.76814176424205      3.49466448593977     -0.21515323197588
  C   1.98697520276573      3.06388188598926     -1.03908972624913
  N   5.95313417333897      0.40331505861876      0.28929138387018
  S   5.51652780159390     -1.15905664981240      0.01263867281557
  C   3.76714999417925     -1.20035599268988     -0.24820922244132
  O   3.24131322469829     -2.26596835555708     -0.44086269771335
  H   6.48737894675088      3.02145479755010      0.18656797032965
  H   5.42995944951119      2.95702289160064      1.60424364830812
  H   4.21196178031007      4.55477225446641      0.23575157945387
  H   5.37245846840545      3.89986062359531     -3.77462706818824
  H   3.20111278391941      3.28457544630345      2.10689430944807
  H   1.98843816857179      2.05790577268275      1.74177551276914
  H   1.83836761879467      4.99401015093548      0.92098754075047
  H   0.66711610573189      4.10910839637196      1.89887946992294
  H   0.16390969911970      4.23823356412268     -0.73361335106083
  H   0.13082527422228      2.63662742493536      0.00387010912714
  H   2.34107533679596      3.90752974713045     -1.63220099608655
  H   1.77141407335536      2.26223543107379     -1.74155811734929
