27
Coordinates from ORCA-job 4703optt
  Br  1.18881033349300     -0.29512458955850      0.00791506509222
  C   3.07033358180403     -0.14134563074366      0.01112423267050
  C   3.69050743091628      1.08099723656605      0.21377610513503
  C   5.09075608782641      1.11901378961570      0.16974200282767
  C   5.84269366037672      2.40789743255978      0.39570801682331
  C   5.54597331532106      3.50723152811545     -0.63203537243164
  C   4.24005890473898      4.27286703368638     -0.38447877311826
  C   2.96502267278743      3.43958665597393     -0.52010054729412
  C   2.91337472790240      2.33844864089500      0.51040235163993
  O   2.30374288713825      2.44728659406602      1.54039961222131
  C   4.18992046127297      5.45894866230075     -1.32101860707109
  O   3.28657451130763      5.69631242598408     -2.07008778039928
  N   5.83057354776406      0.03819827423382     -0.04677545968020
  C   5.21452146788939     -1.13095157309157     -0.23912173868554
  C   3.83064130961881     -1.27266492781110     -0.22179902726407
  C   6.03724494820546     -2.28390206044008     -0.47909640021056
  C   6.69541535970664     -3.26344413192704     -0.68276499141552
  H   6.90078658154244      2.15533519292078      0.36757953234535
  H   5.62168343039881      2.78442571690478      1.39985206240094
  H   5.53349138455117      3.07734582646756     -1.63798899875052
  H   6.37021592482265      4.22446474386684     -0.60790149337353
  H   4.28886351529327      4.69244025334654      0.62979862216385
  H   2.91849876436280      3.01529572984460     -1.52599163897658
  H   2.09652572938439      4.07984194723204     -0.37310202952186
  H   5.08107642093675      6.11730404513055     -1.28352747318886
  H   3.37348433233780     -2.23681846627907     -0.38753639298261
  H   7.29020870830034     -4.12699034985965     -0.86297087895586
