25
Coordinates from ORCA-job 4705optt
  Br  2.27955318346999     -0.44612430978785      1.54424698080806
  C   1.97532485128781      0.54813268703332     -0.03656308893014
  C   2.65533971414017      1.69146327025029     -0.28033808882142
  C   3.25157787442036      2.57100146795108      0.82742549689640
  C   1.93974355902052      2.92854561955116      1.51301436957861
  C   1.02505395682405      3.70294939905566      0.91883021311985
  C   -0.34448867524739      3.19912973475358      0.79667994572038
  C   -0.89528057987141      3.26147109678163     -0.42197080410925
  C   -1.81265188742170      2.26368370778343     -1.03770266825237
  C   -1.84618587643192      2.23993801327432     -2.52176984152866
  N   -1.15254782609130      1.16601866819342     -1.84923222952148
  C   0.24316728044802      1.17675580831642     -1.73757817392970
  N   0.97217187908757      2.02882501694152     -2.35131242100547
  S   2.46702539845805      2.47897606349023     -1.80952284481356
  C   0.77205726022462      0.14337261695514     -0.77483316575161
  O   0.16118053757842     -0.87391622446908     -0.56422110173102
  H   3.76523470381303      3.43293026792226      0.40287566729011
  H   3.92786805926742      2.01351692766770      1.47048237595820
  H   1.59698789529130      2.18048238501641      2.21932851187618
  H   1.33622639986883      4.41507755498146      0.16008543387000
  H   -0.70447288115882      2.49637389409741      1.54335014410290
  H   -0.42687186247161      3.93758295997557     -1.13035788409509
  H   -2.64916667880585      1.89259272260036     -0.46027928228963
  H   -1.25066914402336      2.99315935388885     -3.02571530693639
  H   -2.73817714167682      1.91906129777569     -3.04292223750492
