23
Coordinates from ORCA-job 4707optt
  Br  1.01599153991595     -0.43531820880740      0.68545462909876
  C   2.81273956975087     -0.11970222832600      0.21118866592270
  C   3.34490772587076      1.13548391998358      0.17506403610307
  C   2.52657861254961      2.32726051100441      0.37426229681540
  C   3.01171375650839      3.57400834460239      0.32447764174463
  C   2.10303827398075      4.77590768347372      0.37204438436912
  C   2.50874977535578      5.72586859659130      1.40745792561089
  C   2.87440114899684      6.48477263719873      2.25738859764553
  C   4.46049900973587      3.84722964965124      0.23545886326623
  N   5.32812890759747      3.34606148087717      1.29884822518697
  C   5.35839311059349      2.68322992639345      0.00280482458225
  C   4.76003117877238      1.33262226608953     -0.15009975229114
  N   5.56910591283913      0.42412697979694     -0.55950284763296
  S   5.18081013379484     -1.15635014215725     -0.70875387909021
  C   3.52554349387000     -1.35807905947720     -0.12723695900551
  O   3.06329457782330     -2.46884088789756     -0.06923866176897
  H   1.46532325352735      2.17577842391769      0.50999636750102
  H   1.07030115172538      4.46336849957071      0.52924595149716
  H   2.14200559792537      5.28175952469454     -0.59912037168906
  H   3.19625877789707      7.16158415076390      3.01253517558790
  H   4.74741770240424      4.82183179933497     -0.14014546348838
  H   4.77904103923613      2.81676635284203      1.97190295607578
  H   6.28272574932897      2.81162977987908     -0.54403260604116
