26
Coordinates from ORCA-job 4708optt
  Br  7.09160987971290     -3.66755749619542      0.42861518043894
  C   7.66288976384622     -1.90931314711639      0.04469614963601
  C   8.34009268955039     -1.65139567761929     -1.10541019698756
  C   9.32756000067760     -2.59018747201782     -1.60705772855495
  C   10.32831457941847     -2.19570479642763     -2.42827523475848
  C   11.62399398576783     -2.15656419011299     -1.76891748455202
  C   12.20356129230426     -0.94882508892018     -1.76034668878890
  C   12.81443635944671     -0.32819548369141     -0.53578501692665
  C   12.18150384546307      1.04375266849579     -0.34897312024898
  O   11.70408358991611      1.44093788020053      0.92579901271421
  C   10.75653197054254      1.37122184855234     -0.12243450791945
  C   9.58201492794222      0.47038555641327      0.05629702787044
  C   9.06336323963383      0.10252835388172      1.23019449186649
  S   7.64692296231862     -0.88895222201665      1.44972836705105
  S   8.58974033283576      0.11265204500033     -1.36183365853259
  O   9.37256354830862      0.40328308982632     -2.53098614492892
  O   7.31606501555880      0.74740628774275     -1.20744057386583
  H   9.56971100641868     -3.35361873928395     -0.87199186570302
  H   10.15913063600699     -1.48479404409670     -3.22219724028269
  H   11.79619311959405     -2.85257659433889     -0.95327000485454
  H   11.94752251459457     -0.25660978311850     -2.55717085245657
  H   13.89531764465692     -0.18420558762408     -0.61057234289190
  H   12.61685628218776     -0.94539666503995      0.34114968735957
  H   12.71937503721616      1.83858842330529     -0.86106263519366
  H   10.45391356174032      2.34387517902143     -0.50740260641798
  H   9.50373221434050      0.42926565518009      2.16564798692799
