26
Coordinates from ORCA-job 4715optt
  Br  1.01303333075132     -0.19618101239982      0.10125779049278
  C   2.88652312422163     -0.25251481589590     -0.06816273913179
  C   3.58674866137723     -1.39847548038925      0.00643808458337
  C   3.17606639399233     -2.75844833861438      0.21076636152186
  C   4.30207048752900     -3.52292011766552      0.22597337801632
  C   5.48306710748846     -2.70567695143593      0.03369715524155
  C   6.82037344471149     -3.17126971632922      0.01556316429613
  C   7.95674839372801     -3.56653482098981      0.01406647145105
  C   9.34560402096737     -4.01990142068550      0.00509863914456
  C   9.67715882173645     -4.90528893811630     -1.17717672298687
  C   10.83091612765597     -5.85102503988022     -1.06452957613958
  C   9.42294800553885     -6.37521296462359     -1.08132287716848
  C   5.06195530469787     -1.40658454598920     -0.10778765894197
  N   5.83291830519929     -0.30431030126033     -0.31201256710749
  C   5.30962482502967      0.85180849862511     -0.41585465410145
  S   3.61635692553045      1.28477056601761     -0.31896523878020
  H   2.15713071892911     -3.08975694976202      0.32867047738284
  H   4.33971796111929     -4.59384481146263      0.36095521880881
  H   9.55115894035048     -4.57008301315126      0.92851635146799
  H   9.99947785116922     -3.14364790004821      0.01124773395833
  H   9.51160084687763     -4.44685838003549     -2.14341747256392
  H   11.36474075192539     -5.87521038894799     -0.12353580723178
  H   11.44752943728254     -6.01597178187900     -1.93609024006462
  H   9.01352845318590     -6.74730034996782     -0.15150071396060
  H   9.08493950355111     -6.89687427730623     -1.96491475682171
  H   5.93606225545372      1.72231325219300     -0.58297980136513
