26
Coordinates from ORCA-job 4718optt
  Br  0.94839474463900     -0.36755052638392      0.36836529514403
  C   2.80448260900518     -0.17744873473224      0.11311854848804
  C   3.62364691314237     -1.28489504793719      0.02212635100325
  C   3.29315140322431     -2.75441558403679      0.11847187474417
  C   4.55813787620410     -3.40898980830174     -0.46827849050108
  C   5.72322676855472     -2.41920561373244     -0.15570270113438
  C   6.79442677393995     -2.48547790214625     -1.15209232203741
  C   7.65188389346658     -2.54514354211579     -1.98396901352418
  C   6.26185098004017     -2.65995044412059      1.19464406897195
  C   6.66325318917144     -2.84812734524565      2.30690773959584
  C   4.98174955766576     -1.08144762731376     -0.15417217743254
  C   5.48447485473610      0.20268160469784     -0.25204302311054
  N   4.68812920408675      1.26665150287223     -0.17734760733149
  C   3.38515122860352      1.08314869315514      0.00464249084268
  N   3.01286996244895     -3.12952748886565      1.49042311293448
  C   1.93674369484309     -3.88764327009356      1.82251751781620
  O   1.12280997332589     -4.31049032507555      1.03755032696991
  H   2.40216374478567     -3.01935683376965     -0.44982426373574
  H   4.46091397942686     -3.46961450418993     -1.55180543256964
  H   4.74334943647992     -4.40299100645638     -0.06894461176367
  H   8.41586466056183     -2.60020668258715     -2.72241594147418
  H   7.04273611815069     -3.01535009149960      3.28716227516796
  H   6.54330725576061      0.38374916912842     -0.40036588564688
  H   2.76572286465242      1.97082659334469      0.06034243779774
  H   3.66931418960632     -2.86607000159098      2.20976755182495
  H   1.87724412347772     -4.08115518300349      2.90492187896052
