32
Coordinates from ORCA-job 4724optt
  Br  2.31934976364089      0.96963300923559     -3.43674775028359
  C   3.52845535755029      0.50083406657475     -2.05442130857643
  C   3.73923495946607      1.29163884903756     -0.99527746785449
  C   2.90832115952037      2.50324461554395     -0.63314804572177
  C   1.49168317854050      2.15689302077197     -0.06037759632552
  C   1.45296725378521      1.64095213511880      1.40534766354730
  C   2.50861450355050      0.56396038671085      1.55991532412803
  C   2.71457553608712     -0.30123039109806      2.79082854888302
  C   3.77308609725431     -1.37423016759103      2.45774605173390
  C   5.07706586732730     -0.90135051127560      1.75716873894466
  C   4.91249093301378     -0.53218717833578      0.29493696152896
  C   4.75900891985130     -1.43074523649244     -0.68286175056637
  S   4.24135847998980     -1.06720521000832     -2.30392062099325
  C   4.82721827526652      0.91006591148562     -0.04850918220262
  O   5.51550852289134      1.74525414176714      0.49192282866387
  C   0.62393015550119      3.32652526279765     -0.19285306903113
  C   -0.07436356280613      4.29594390708543     -0.28462427794702
  H   2.75663397679636      3.11626982692112     -1.52125802573416
  H   3.46424274433244      3.10431135311254      0.08757771565224
  H   1.07814929418881      1.36640624831086     -0.69598254998367
  H   0.44331976465227      1.27747101638090      1.60893161486449
  H   1.64077749113942      2.47505727583090      2.08588709989067
  H   3.44349552373119      1.10113909769200      1.46747326828098
  H   2.41485709767489     -0.11062426527083      0.70434566566923
  H   1.79531219014536     -0.80165432859477      3.10545164202094
  H   3.05048537731322      0.31062303875800      3.63263739157323
  H   3.30985638703048     -2.12998030413605      1.81555113827204
  H   4.06386976346487     -1.88560407753433      3.37753701026857
  H   5.80105442165734     -1.71504873548652      1.83206852890408
  H   5.50510608764762     -0.04464059623931      2.28147810623333
  H   4.89402157667492     -2.49348958138783     -0.51345617224033
  H   -0.69768709687958      5.15376742031524     -0.36736748159921
