29
Coordinates from ORCA-job 4730optt
  Br  6.51528961647074     -3.96347429495308      5.49665300943673
  C   5.92387059264848     -3.63477421858157      3.75442853626687
  C   5.12152241601028     -2.63209125416627      3.39588675500669
  C   4.62663300694971     -1.47692908375599      4.20308949489374
  C   5.36045194086044     -0.18781923094029      3.74253693555333
  C   4.62845816021877      0.66529224318717      2.69183828130555
  C   5.56539390610925      1.63030806636059      1.93621285694255
  C   6.02846535569703      1.13236881285825      0.53880143180066
  C   6.48947229872589     -0.28221663287271      0.66331618368362
  C   5.71471409286574     -1.31530205512627      0.34850645062214
  C   5.80366832720731     -2.55917949171472      1.13178301364468
  O   4.79891488404319     -2.47598249095810      2.07307878847934
  C   6.69473481331768     -3.53947091470578      1.18313414163376
  S   6.54181879261373     -4.71417246031665      2.48178692376929
  O   7.85310484799094     -5.15830038884797      2.84547932345475
  O   5.52784445299683     -5.67585932199874      2.17075070803063
  H   4.80561984955439     -1.67216829030060      5.25763792836055
  H   3.54874668765466     -1.37374340308883      4.05581504068365
  H   6.34592083951140     -0.47438278567197      3.36595777251758
  H   5.55326782746926      0.43525598984963      4.61789859317321
  H   3.84962584907443      1.23680089315332      3.20111165688744
  H   4.11271784397797      0.01850088512846      1.97990426529452
  H   6.44814440486441      1.82711798950260      2.55116852884047
  H   5.07588534382001      2.59439443411038      1.79027804060650
  H   6.80918100949100      1.79802221935401      0.16737738901683
  H   5.18581191433182      1.18047589826321     -0.15416462260784
  H   7.38713533643846     -0.46006067727967      1.25054249219695
  H   4.77516667920239     -1.15708183721043     -0.17265949395842
  H   7.54241890988365     -3.63452859927797      0.52184957446418
