27
Coordinates from ORCA-job 4733optt
  Br  0.98707561283227     -0.05692761380779      0.00538623326579
  C   2.85684263248575     -0.13113284191095     -0.05695643554093
  C   3.49921022806346     -1.30952203583604     -0.03388456544180
  C   2.99937117647082     -2.72011782476128      0.04797412114328
  C   4.24180728969651     -3.57261992350164     -0.32534868879741
  C   4.26624065089568     -4.93788875078830      0.37026605106817
  C   5.51712609479003     -5.75655397134529      0.03528897348995
  C   5.54151307646641     -7.02136630930950      0.76241590897331
  C   5.54038559348454     -8.05011211558280      1.37413278922630
  C   5.42442755716159     -2.66537726285578      0.08735800821342
  N   4.87443538231103     -1.32697572550715     -0.06686640915291
  C   5.56004914001820     -0.15745858832996     -0.12853198240196
  N   5.01856995824112      1.00084726796878     -0.16282657965939
  C   3.61666426396233      1.13598158869521     -0.11708591807950
  O   3.08761920605513      2.21707351083326     -0.12782035306533
  C   4.28045846883746     -3.75782019260193     -1.78436439632914
  N   4.32244028909675     -3.92177392593212     -2.91766409382339
  H   2.14903346960711     -2.89586372257073     -0.60799630226779
  H   2.68894262101109     -2.94697990101565      1.07141737372160
  H   3.37590456755935     -5.50219049731000      0.08874905567116
  H   4.21650741604270     -4.76781249111782      1.44784360620040
  H   6.41789515287866     -5.18972512732954      0.28811484294368
  H   5.55620820184796     -5.95218643721012     -1.03946050082780
  H   5.54715749673665     -8.96790471555889      1.91260209161078
  H   6.30782633654720     -2.79551905989473     -0.53483654325743
  H   5.68363644892989     -2.85802268427627      1.13265413483177
  H   6.64265166797021     -0.25405064914294     -0.15556042171484
