28
Coordinates from ORCA-job 4734optt
  Br  0.97616818666095     -0.14140268789163     -0.16890479229244
  C   2.84012438322975      0.06984793472794      0.01318273323535
  C   3.42477369962229      1.31176787962264      0.21964737826767
  C   4.82233773058660      1.41817946252565      0.29226046115833
  C   5.52244127972563      2.74735375180789      0.51933936214573
  C   5.35766751725321      3.16635130315995      2.00022270130971
  C   5.97387934432648      4.45808857958118      2.28505332081505
  C   6.47801011697034      5.52469251800354      2.49461496128426
  C   5.17785790677028      3.86225360604643     -0.48590735852504
  C   3.78748444485501      4.47984065256942     -0.40278652357365
  N   2.70921795449383      3.51153825548467     -0.66457917403823
  C   2.60031082769858      2.55501451416521      0.37067734526035
  N   1.94501576555790      2.72441245801753      1.43225951635333
  C   5.51588252249668      0.20489533376093      0.21038013824482
  Br  7.41558842192893      0.14174561798560      0.40819845053498
  N   4.96571226562119     -0.97158256662130      0.01831091174646
  C   3.64923648910141     -1.04991808002918     -0.09343203658127
  H   6.58552905165749      2.56842395135852      0.37468752877080
  H   5.82161246280590      2.39975473007489      2.62584195109223
  H   4.30247887633356      3.19909573031965      2.27920480374424
  H   6.92515150194858      6.46933353303264      2.69330457189353
  H   5.33080176102793      3.46824432860995     -1.49558794769140
  H   5.91338097473442      4.65686526416540     -0.34345545461377
  H   3.69896101290657      5.28524805785849     -1.13208533050981
  H   3.61280969311201      4.91977044460698      0.58121147710331
  H   2.89520026509712      3.04667320061719     -1.54826348629557
  H   1.44625651491188      3.61599790707963      1.39255981353109
  H   3.22210902856538     -2.03048568063984     -0.26395532237010
