29
Coordinates from ORCA-job 4735optt
  Br  0.98340905489651     -0.29242315291197      0.50740972428535
  C   2.84065492507761     -0.02370708239420      0.30795431397066
  C   3.32381448967995      1.20848028028441     -0.03693303185751
  C   2.68367915667924      2.52444522301215     -0.35426452012266
  C   3.89173932364705      3.50250672350370     -0.29215021719393
  C   3.77620696875816      4.65159208474290     -1.29118549135846
  C   4.95505852371965      5.61314855792800     -1.26723092248965
  C   4.78007135535095      6.75642104641843     -2.27430982769698
  C   3.59912520340577      7.57011455524770     -1.99266901728075
  C   2.62295151410889      8.21681873625136     -1.73975179617099
  N   5.03859619603023      2.62709887849014     -0.56435990142391
  C   4.71334207869675      1.33343506063284     -0.17468112361405
  N   5.59617112851612      0.37801888607017      0.00573144040464
  C   5.08781728270594     -0.81450651040730      0.34699177905535
  C   3.73931983242351     -1.07445426821827      0.51015605217282
  C   3.99715407129764      4.05185906391963      1.08393426984512
  N   4.10029126637684      4.48732277481727      2.13925359667040
  H   1.88820075444554      2.80917464637608      0.33174322040502
  H   2.27831460671700      2.52270859086651     -1.36970843715693
  H   2.85384159178106      5.19954638905533     -1.08192586387997
  H   3.68043167927366      4.19937076495677     -2.28144972769790
  H   5.87543219662080      5.07859591823650     -1.51442769616752
  H   5.07208114753262      6.03343264947349     -0.26547945101277
  H   4.69657674581989      6.34791583876035     -3.28490566229812
  H   5.66435032646811      7.39611394885571     -2.26347289870974
  H   1.76146239909622      8.79929147131680     -1.51578096591448
  H   5.95920762340418      2.95398996008500     -0.30580188168985
  H   5.80995584858497     -1.60755961396053      0.50200796430352
  H   3.39374270888504     -2.05775142140903      0.79130607262330
