32
Coordinates from ORCA-job 4741optt
  Br  1.20544789654589      0.19662020360927     -0.25758683007137
  C   3.07661618983203      0.01173556454696     -0.07217496544431
  C   3.69739910213926     -1.16603571683827      0.16148041940089
  C   2.98529377194116     -2.47264236833136      0.36136242647664
  C   3.23500166997715     -3.51921088583963     -0.73614671961299
  C   2.18115227232770     -4.62670937105622     -0.67231654434399
  C   0.79588739019663     -4.19441486016166     -1.17152588266542
  C   0.80893755154024     -3.82120560606723     -2.58405619519193
  C   0.85225444473958     -3.52292062187775     -3.74360066717854
  C   4.61549074390104     -4.15390138032660     -0.60935609041182
  O   5.69740130577023     -3.25723158684782     -0.73035369797392
  C   5.90533085188237     -2.39406915657018      0.36476148629885
  C   5.14271898043981     -1.10152016985925      0.21527527141742
  C   5.81133555828383      0.06447977417643      0.09852545225430
  C   5.12904662157968      1.32851767329079     -0.10376745342710
  N   5.61063677139925      2.50618410689281     -0.21597461586211
  N   3.74649962729937      1.18669618857066     -0.20738134961467
  H   1.91816458469600     -2.27805431830824      0.44307622515042
  H   3.28616352373606     -2.90645706266480      1.32286405460063
  H   3.17156168954044     -3.02981988205998     -1.71295779678827
  H   2.08747058180195     -4.98116373458362      0.35902159967035
  H   2.50911916999396     -5.47840874495728     -1.27348040097406
  H   0.42049732542195     -3.34958405782529     -0.58885747318329
  H   0.08396591764035     -5.00951495378825     -1.02704310116061
  H   0.88191993790841     -3.25467661470317     -4.77248421961798
  H   4.75484929433881     -4.88846433554729     -1.40350640779056
  H   4.68179136610920     -4.68263175945656      0.35417977437926
  H   6.97317746310676     -2.17881309190443      0.40087090216779
  H   5.62923032414929     -2.89602384710441      1.30116939732244
  H   6.89326323465214      0.08749848846224      0.13088609286079
  H   6.62197237044370      2.48938985509480     -0.13516574541340
  H   3.23640246666572      2.04035227203538     -0.38273694527342
