29
Coordinates from ORCA-job 4742optt
  Br  2.17481006053964     -0.73115319477407     -1.64300047158345
  C   2.43294403762498      0.33016590247888     -0.09171840909953
  C   2.85435735623621      1.61186616060338     -0.19626843882291
  C   3.14309401383789      2.29188923772830     -1.50835728926262
  C   1.85310674151033      2.78003581138131     -2.19393954831202
  C   1.03817534059264      3.66059882204969     -1.29789289394000
  C   -0.08809113798639      3.27775045949015     -0.70865541621575
  C   -0.88304848671569      4.11825686649970      0.24016358358259
  C   -0.91528865608144      3.54510697883068      1.66161193508560
  C   0.46496651856928      3.36375218433163      2.26691431072544
  O   0.90099818428338      2.00278551756438      2.06971912493363
  C   2.21783460150440      1.80791485021752      2.11093475886964
  C   2.78206145949509      0.61044414140578      2.38074161651901
  S   2.07482512134134     -0.63287208423720      1.35974984955453
  C   3.02739971140046      2.50332082078056      1.02948060513047
  O   3.66431936650002      3.51668858201500      1.03937518730375
  H   3.67491583833334      1.61299571039120     -2.17549160515644
  H   3.79639996316663      3.14004713659338     -1.30303646171244
  H   1.25724718005555      1.91587757955911     -2.49268281936500
  H   2.13080551717063      3.31633203814932     -3.10449617332634
  H   1.43142852357499      4.65539470101406     -1.09470302339062
  H   -0.46280143029940      2.27242706667157     -0.89702246469577
  H   -1.91089378647692      4.21454735034834     -0.11987771898069
  H   -0.45956355056792      5.12558206707006      0.27172887126774
  H   -1.49335639335535      4.21571542748163      2.29977802039667
  H   -1.42257466779162      2.57791506138700      1.67819757147867
  H   1.18834563564365      4.05031762537118      1.81819343166866
  H   0.45264700222989      3.53248855953763      3.34511089696844
  H   3.86693593566437      0.59480862005980      2.34644297037874
