25
Coordinates from ORCA-job 4745optt
  Br  1.49565938272209     -0.07980913579091      1.68586654741727
  C   3.21120884395690     -0.02387374894130      0.90214869894185
  C   3.81334051986793     -1.13316622835993      0.48892341262516
  C   3.26244966232138     -2.54054564114112      0.52467902226648
  C   2.27684387261877     -2.75802861086556     -0.63114733456558
  C   1.53261309847063     -4.08997934340069     -0.49973309205464
  C   0.64803922890098     -4.33559417009092     -1.63408740519837
  C   -0.06798716691127     -4.51057618360621     -2.57742026748985
  C   4.51646823787786     -3.40463016851550      0.39219046925434
  C   5.57733028329283     -2.50428147737367     -0.20757733826269
  O   6.63272978318575     -2.81802702894589     -0.64904980614545
  N   5.08912446630293     -1.15757972148235     -0.10201617371177
  C   5.83527583434960     -0.06010780198949     -0.54161676723910
  O   6.83450868739109     -0.15170855525517     -1.18035582973750
  C   5.34486869873369      1.35603626922545     -0.14204740262813
  O   5.99946994757010      2.30404593581204     -0.44001760220267
  S   3.85559582896953      1.59262422672759      0.78619472901985
  H   2.74886773525516     -2.70493730376665      1.47203868821728
  H   2.81817500261898     -2.72843260807517     -1.58111892224534
  H   1.54924920302994     -1.94617961806894     -0.64981261965530
  H   0.94394163892242     -4.08596669020913      0.42183204226952
  H   2.24056238456473     -4.91871877761203     -0.41628732640484
  H   -0.70795234180750     -4.67150323462886     -3.41182729684862
  H   4.39211374497666     -4.27636315295396     -0.24741693663098
  H   4.89350342281880     -3.74869723069158      1.35665851100905
