29
Coordinates from ORCA-job 4750optt
  Br  1.01894544054409      0.37388804009847     -0.46343716857366
  C   2.89634904641144      0.19148076078895     -0.33858125659093
  C   3.49730911918867     -1.06355742464404     -0.25920388226515
  C   2.65199765452389     -2.31202312649085     -0.22710507684509
  C   3.42013451876898     -3.63409052044761     -0.18489196699993
  C   4.75656892362214     -3.48591915047308      0.52802678832313
  C   5.62615770000033     -2.40780159484387     -0.11856566602888
  C   6.13087949887405     -2.81797240023241     -1.52582499484804
  C   5.13675900550558     -2.65436249716904     -2.58675877778818
  N   4.35183570313080     -2.50635607078119     -3.40876554528679
  C   4.89335503838045     -1.08441334102308     -0.16762723280413
  C   5.57926170584870      0.13406953666748     -0.14192842299252
  C   7.09032306129003      0.21254786698354     -0.00383586860769
  C   7.56532555915782     -0.25350241625987      1.29988141842504
  N   7.92700542257132     -0.63921188488684      2.31650917325851
  N   4.98075338015009      1.31473098123426     -0.21970629780113
  C   3.66012263750303      1.34436540308082     -0.32570084694208
  H   1.97995103236274     -2.29173967792726     -1.08736811730779
  H   2.00528684922023     -2.22653167009374      0.65185798895122
  H   3.57719364514506     -4.00420667422381     -1.19807170895345
  H   2.81197636678833     -4.38381578041923      0.32174680411026
  H   5.29744062463635     -4.43438405838746      0.53398129516442
  H   4.59213345416367     -3.20494091689921      1.57182136853129
  H   6.52057031244861     -2.29883497714978      0.49565272554744
  H   6.45821262799188     -3.85954611245374     -1.51262144594863
  H   6.99573650591668     -2.21637406977672     -1.81049640210914
  H   7.37634085661785      1.25595118101440     -0.12590585541818
  H   7.60212379352810     -0.36656370414488     -0.77457810942317
  H   3.18895051570899      2.31711429885984     -0.39850291877675
