28
Coordinates from ORCA-job 4752optt
  Br  0.86363824070704      0.01728194143763     -0.04665635679106
  C   2.75685022337558      0.03965273072572     -0.05805900347041
  C   3.43440778822929     -1.13214448398284     -0.04885822287157
  C   2.67258275424391     -2.44166400704700     -0.06090634245591
  C   3.52746718025825     -3.66875121852278     -0.33986969383840
  C   4.79483326535732     -3.61358636375448      0.48574706001806
  C   5.69110108659479     -4.82781137504265      0.23608262873721
  C   6.94816393890137     -4.74158296005504      0.97413801676660
  C   7.96998435044882     -4.61402954709193      1.58570696198549
  N   5.50957140643127     -2.41702874908475      0.09739599077419
  C   4.89414675889534     -1.18365515678840      0.03240665669401
  C   5.66634193826614     -0.06123506637676      0.01758938815920
  S   5.05767335231905      1.56264473956565     -0.12875838808493
  C   3.31052054358323      1.40111465274941     -0.04572021895488
  N   2.55939719191405      2.42502586104572     -0.01583075235384
  C   7.07716792664787     -0.14099193678361      0.09990277588237
  C   8.27399522065806     -0.22878331038735      0.17165633262219
  H   1.86827676422777     -2.36973272885613     -0.79129500905504
  H   2.17983432355531     -2.54694935265619      0.91136067266517
  H   3.80911204519768     -3.70772893341312     -1.39524563134811
  H   2.95821658729339     -4.57028008131044     -0.10875550227070
  H   4.53337360934394     -3.59273786620514      1.55416364600450
  H   5.90304768397720     -4.89719520624401     -0.83406473618577
  H   5.15311623764166     -5.73158750591212      0.52932011051587
  H   8.87946989646124     -4.51722273605512      2.12920507629613
  H   6.48330771134649     -2.38660629605207      0.37334733658659
  H   3.08654522235644      3.29610319357998     -0.00403780881985
  H   9.33385675176743     -0.29751823748215      0.23103501279290
