31
Coordinates from ORCA-job 4757optt
  Br  1.10144703032613     -0.17886701202507     -0.08342304236445
  C   2.99689393392410     -0.09395070013249     -0.01472109598922
  C   3.74717843514546     -1.23321853491110      0.03626505493535
  C   3.13828739444724     -2.62264952702929      0.11914049016403
  C   2.55667892349527     -2.88297240677953      1.51976962318567
  C   1.52500232197718     -3.99992766132749      1.49126704037001
  C   1.04302029613504     -4.36159696466013      2.89880039097286
  C   0.01293668226861     -5.39607903712678      2.88623808311493
  C   -0.83437729674631     -6.24163606885406      2.84802565555362
  N   4.04933183315844     -3.69118791799951     -0.25963222220477
  C   5.36423190963781     -3.53258029637234      0.33582917201224
  C   6.03231166115835     -2.23122220233647     -0.05848653057564
  N   5.10862911227705     -1.09039945176872      0.02866734593828
  C   5.73416544597269      0.15934582966261     -0.03246538957741
  O   6.94511198801185      0.25406128283068     -0.10056532394801
  C   4.80617812616274      1.27762599510023     -0.02068235645124
  N   3.52325009788623      1.14494320665928     -0.03106456336995
  H   2.30531519168260     -2.63681941315203     -0.58608870429013
  H   2.10112541289997     -1.96926904162484      1.90457106518540
  H   3.36970140094187     -3.13902155133225      2.20411808238610
  H   1.95162658613493     -4.88253204034906      1.01208818168586
  H   0.66784832851321     -3.68496147332147      0.89014456328517
  H   0.64574655948299     -3.47117441767975      3.39380888422810
  H   1.88763159766686     -4.70560942398746      3.50175276710727
  H   -1.58847840405729     -6.99080416039961      2.81877828443066
  H   4.12231825265216     -3.75839985998897     -1.26770846609509
  H   6.00001331862732     -4.36487355591955      0.03538361296999
  H   5.26472204773332     -3.58704601291425      1.42064926688762
  H   6.40066688737797     -2.27063491938570     -1.08719360383142
  H   6.88826553888876     -1.99702411715848      0.57206503750657
  H   5.23821938621734      2.27148145428373     -0.03233130322243
