31
Coordinates from ORCA-job 4759optt
  Br  1.80583007736662     -0.39346894381372     -0.66627858509900
  C   0.88859322374403      1.05097465133491      0.12447644085537
  C   1.16458057317703      2.34250408346126     -0.17974108391155
  C   2.03577899045049      2.78481564555374     -1.31306141480909
  C   1.16781077134825      2.97566336402552     -2.57993423020751
  C   0.04551632878243      4.01975441707003     -2.44234573082660
  C   -1.31014472666930      3.49075506063279     -1.92604515261185
  C   -2.12101075291440      4.54477420260690     -1.13497284027130
  C   -2.61322322570902      4.11359490730760      0.26694285140811
  N   -1.57140763920742      4.06736178764266      1.32106986309842
  C   -0.61112341942414      3.08530366440595      1.02921416583881
  N   -0.96040280590257      1.82838773623798      1.36277148635999
  C   -0.20082731999132      0.69727910582715      1.03072094760769
  N   -0.58104149853093     -0.42119937948179      1.48903029868359
  N   0.46013974895186      3.38988662693097      0.38383911384252
  C   -3.65282721532486      5.04402066458700      0.73139991323546
  N   -4.44718615042601      5.79619012456744      1.06953933372499
  H   2.82533547757017      2.06480485028153     -1.51687200457760
  H   2.48916321391653      3.73929491050207     -1.04269957241188
  H   0.75031523528659      2.00772177937310     -2.87340757343274
  H   1.84113248242406      3.27919929201753     -3.38342885586007
  H   -0.12009779759831      4.48344953243954     -3.41712209674575
  H   0.39815329951451      4.81192219290501     -1.78015447315316
  H   -1.16218923775311      2.59009741078028     -1.32864247387851
  H   -1.90422419361807      3.16047983280071     -2.78039349765119
  H   -3.00323348151677      4.84357402247640     -1.70293097506919
  H   -1.52733415471096      5.45208080973683     -0.99725034106816
  H   -3.06746879936780      3.12119503942807      0.20710841890376
  H   -1.09600439567637      4.96522784319676      1.34300713588325
  H   -1.77187463019949      1.66928609905517      1.94541869349001
  H   0.02027202200830     -1.17393133388946      1.16874223865319
