26
Coordinates from ORCA-job 4763optt
  Br  1.26201714134450     -0.20585774301082     -0.40188128825516
  C   3.13683985807475     -0.12500868747440     -0.13168834393977
  C   3.69741416903756      1.10918648076117      0.09699928199944
  C   3.06633628125571      2.48181906822436      0.21812783322833
  C   2.35852363704621      2.62408230942850      1.49159681377717
  C   1.78335559866375      2.74426279111129      2.53437443400751
  C   4.32289087755616      3.39556741471822      0.10264724295481
  C   4.25886289450461      4.70008197303622      0.88907534694410
  C   3.19752927526740      5.56285509204341      0.37530753677067
  N   2.36355839031469      6.21319880567368     -0.06424146335677
  N   5.40604554110507      2.54078632505461      0.58927869231648
  C   5.06869456931496      1.22175806800909      0.33494639402964
  C   5.89756646776680      0.10586786048224      0.32665907819728
  C   5.31504931996333     -1.12114738480533      0.07465227199388
  C   3.94510328402932     -1.26827734607357     -0.15813187803640
  C   3.42832680330213     -2.63033864295604     -0.42260066489702
  O   4.13196258752965     -3.60790203717170     -0.44566058733153
  H   2.36935593820050      2.69325215664201     -0.59418000093257
  H   1.26137219445182      2.84343531633839      3.45632762638239
  H   4.46162627315423      3.62275470643069     -0.96044607596056
  H   5.20930346380230      5.23059465305787      0.80758496600072
  H   4.07332935034239      4.48654931933560      1.94207678887697
  H   6.34990626496341      2.82810000463082      0.37570244435741
  H   6.96005807183417      0.19457683741687      0.50947993664809
  H   5.91339744282686     -2.02351352595956      0.04872365311896
  H   2.34557430434764     -2.71368381494365     -0.60373003889409
