28
Coordinates from ORCA-job 4764optt
  Br  0.79062288349214     -0.71435739042305      0.86564694587847
  C   2.40938794469812     -1.61055588436073      1.18177282339223
  C   3.38668568235513     -1.66918594260804      0.22687522040524
  C   3.61165535483101     -1.22975293157530     -1.08819945863398
  C   4.87312771216465     -1.68683490049438     -1.44354381244050
  C   5.49770456990668     -2.42136099780237     -0.39575177487820
  C   6.85759225422969     -3.04775423654965     -0.40843123556957
  C   7.97817028534952     -2.03071053842800     -0.19891915244437
  C   9.37114947807397     -2.62831251034544     -0.13183522074799
  N   9.67748493197019     -3.85627298316914     -0.24632288361208
  N   10.34636661931875     -1.67520676885016      0.08574790591770
  C   11.72261455410997     -1.87435198411895      0.24554271799144
  N   12.37876398787643     -2.94681294228792      0.22131619295438
  C   4.58098920501206     -2.40719958903277      0.63225693610198
  N   4.56397862562569     -2.92293118696493      1.87923968449489
  N   3.57706228545204     -2.81714455845155      2.74265997128588
  N   2.51741091514367     -2.17268175613896      2.40255339007290
  H   2.92906334229129     -0.65807298204311     -1.69403412768221
  H   5.33486708617960     -1.51960008490269     -2.40832592918553
  H   7.01286801072082     -3.56597033479495     -1.35821343654895
  H   6.91882632895449     -3.81372482202905      0.37085058225789
  H   7.79931951755367     -1.47446297923432      0.72604956763273
  H   7.95544746359059     -1.29284536798676     -1.00631793020923
  H   8.85592039184869     -4.42923379992530     -0.40456019301405
  H   10.03217142870362     -0.72183695308506      0.15843828257493
  H   12.23460831169757     -0.92590309386859      0.41147172026016
  H   11.76728377276694     -3.74506293844408      0.05545792493038
  H   5.34685705608296     -3.44785954208474      2.24657528881544
