25
Coordinates from ORCA-job 4766optt
  Br  1.56039071888681     -0.34747736765207      2.30333256778979
  C   3.21826620207866     -0.23198942574161      1.42104974944002
  C   3.74246949444214     -1.27864401822678      0.77996290760619
  C   3.22642009619234     -2.67580883384268      0.58419397107991
  C   2.16919762796567     -2.75360109282278     -0.51181991723373
  C   1.65105100914178     -4.19841336963807     -0.66937441093057
  C   0.92541706367780     -4.63530384107981      0.52692936940628
  C   0.35081754300547     -4.94975256026065      1.52712841255439
  C   0.80167764979276     -4.29790102246297     -1.86400833591748
  N   0.15822914644987     -4.33722743073804     -2.81047887756067
  O   4.38299160343677     -3.42747899896712      0.21683323841471
  C   5.37261854250943     -2.57726358633019     -0.33860712163278
  C   5.05336626883359     -1.19710293425642      0.17635057303610
  N   5.83861866315778     -0.19884654006608      0.06303657241524
  C   5.47420501224554      1.06151154743877      0.52852454664116
  N   6.12535570060946      2.12243386658890      0.34033359465988
  S   3.99533729654235      1.30535488768381      1.53201095091703
  H   2.83413406698112     -3.10190439729522      1.51066003671254
  H   2.60359883960009     -2.42440906056745     -1.45816095957059
  H   1.33261919292155     -2.09514411164828     -0.27324677344867
  H   2.51211682954963     -4.85618686997341     -0.82194361604294
  H   -0.16929763523339     -5.24042468045220      2.40912074237907
  H   5.33909434706033     -2.57921826517869     -1.43406211270644
  H   6.35759449042873     -2.91288420755528     -0.01722733230040
  H   6.96971022972372      1.91868231304434     -0.19353777570804
