31
Coordinates from ORCA-job 4767optt
  Br  2.02133801747517      0.51050528704811      3.26964677476488
  C   2.65535991005848      0.59851298093005      1.49400615071247
  C   3.40095050172918      1.63247146454442      1.06204756568892
  C   3.41077271630122      3.00271291993693      1.67339349933577
  C   2.01412225268732      3.62363517365269      1.40634724051157
  C   1.57375120459723      3.57318708728582     -0.06309519103577
  C   0.05473575082089      3.63596685577380     -0.28824054577757
  C   -0.38725655859634      2.72561228829614     -1.44661044916016
  C   -0.13987169755692      1.27556694709827     -1.09513474286903
  N   -0.65915514490195      0.76335858871178     -0.07343546053345
  O   0.71865324559092      0.67905472623775     -1.99233043134771
  C   1.34047682440610     -0.55775378837853     -1.64820948051023
  C   2.34684599603108     -0.20174627103876     -0.58781842655329
  O   3.35572623382232      0.53068170265633     -1.07866224874846
  C   3.97727011979523      1.48680503270156     -0.27494221989329
  N   4.93098411718608      2.17075673346902     -0.72197140193868
  N   2.08888753231554     -0.33774323098467      0.64949937513737
  H   4.20390828269523      3.59073341786575      1.21551254728795
  H   3.58777343917357      2.95571377114625      2.74738880933669
  H   2.00180223610393      4.65076232616151      1.77699991303306
  H   1.28788041295440      3.06395507348915      2.00122710528524
  H   1.91193478140278      2.63318486331563     -0.50020017411540
  H   2.08003594809526      4.35284460967400     -0.63766853816648
  H   -0.46908318810098      3.29873220937325      0.60791587021306
  H   -0.27101551589701      4.65772481082279     -0.48906812066255
  H   0.14877708091669      2.97272053823561     -2.36308503188660
  H   -1.45525814157715      2.85002940257580     -1.62907319306088
  H   -0.37976430707832     -0.19185198929521      0.12790034996905
  H   1.80732198054582     -0.91509550205208     -2.56221945036790
  H   0.63253895801113     -1.29502363532355     -1.27152991010143
  H   5.15055701099307      1.92398560607036     -1.68459018454713
