28
Coordinates from ORCA-job 4768optt
  Br  4.33759431392806     -0.31127408694566     -1.79937386341548
  C   3.23778339719082      0.17854910517870     -0.34854682476732
  C   2.12195608350601      0.90804796706632     -0.56836124180479
  C   1.69123156974837      1.42104786093314     -1.92245179377073
  C   0.54801562784223      2.43019905463357     -1.81692622568437
  C   0.93598265916771      3.70648721331226     -1.04005933325454
  C   -0.04592856637108      4.17953054999659      0.04866668653438
  C   0.28517409884437      3.76659939563962      1.49779731533903
  C   -0.34217286720437      2.48720134190568      2.00289036150608
  N   -1.54784241208201      2.18665082429822      2.10645336279146
  O   0.56818350457377      1.55885900364191      2.55281897438981
  C   1.44236139258997      1.07556631096064      1.66433546232687
  S   2.77766483867553      0.24726023404317      2.39889043839352
  C   3.69629861737282     -0.29711153315658      0.95655106646533
  N   4.71625932059402     -1.02795056320827      1.10553178229497
  N   1.24590324470539      1.27040241797154      0.43114149610110
  H   1.40091573051861      0.56759576909357     -2.54273559750463
  H   2.55504803091150      1.86777720201339     -2.42074681607801
  H   -0.30702797419177      1.95049509644838     -1.34105119929975
  H   0.23807987691238      2.69475386246616     -2.82904320680688
  H   1.05803565815236      4.52060793078511     -1.75683002752821
  H   1.92061204828685      3.57274322877158     -0.58274087936079
  H   -1.06243074598127      3.86230734606179     -0.20029486906786
  H   -0.06295008034775      5.27026201287873      0.03775433789400
  H   1.36611625491890      3.71837461617880      1.62939583098828
  H   -0.07703797432672      4.54508704302012      2.17448231955059
  H   -2.13615490372779      2.94317821148037      1.76051993225560
  H   4.90632925579308     -1.26824741546888      2.07593251151233
