24
Coordinates from ORCA-job 4770optt
  Br  3.95264730773246      1.64683899760075      3.64707832014561
  C   4.15476221667035      0.52358978567466      2.15012742846820
  C   3.57685878502060      0.79629375524999      0.94146654618686
  C   2.72067459267517      1.99078462668697      0.79789626331520
  C   1.55204968063393      2.03321392039431      0.13135389571134
  C   1.12956355066891      0.82370722986192     -0.57295176032272
  C   0.92369074220027      0.70857355982672     -1.88348988235002
  C   1.50560392846975     -0.49836151445311     -2.49169030603597
  C   2.76840857850229     -0.76914432583955     -2.15028066620762
  O   3.47440117466719      0.12602768098735     -1.35688949225177
  C   3.87163425997001     -0.18513800857012     -0.09518902644449
  C   4.56072626351243     -1.32493774863948      0.15164442146077
  C   5.11000571724211     -1.61382282576208      1.44993271978128
  O   5.74360119634497     -2.59330549589052      1.77724436832984
  N   4.88081353044508     -0.58820159090767      2.38548531616449
  C   0.83518755713410      3.26357643580513     -0.01738323418743
  N   0.23771027567595      4.23357309246296     -0.15583462127946
  H   3.06288708992749      2.89046197987490      1.29428113382016
  H   1.37306695337325     -0.08548378576316     -0.03325701908017
  H   0.66186894498891      1.55930027180992     -2.50506340454220
  H   1.01578072471590     -1.10991776226909     -3.23852256112206
  H   3.34160528193455     -1.60006581861620     -2.54270399046524
  H   4.77117039590416     -2.03535008583680     -0.63394266991812
  H   5.27328125159016     -0.74921237368779      3.30368822082354
