28
Coordinates from ORCA-job 4772optt
  Br  0.91968015508252     -0.14592014890699     -0.11039123897728
  C   2.81497046374361     -0.12757195274799     -0.07168619023034
  C   3.52893032739972      1.07862778157052     -0.05867857001899
  C   2.83024518336576      2.41200069846922     -0.06094467461705
  C   3.74217336397332      3.55908861375822      0.34370546415488
  C   5.05545995318464      3.50686075075715     -0.44901492762304
  C   5.87685118170582      4.69112053276965     -0.24261030966055
  C   6.51544988827324      5.68604754266629     -0.05996333280208
  C   5.79146838921827      2.21543499442873     -0.09088755830599
  O   6.96610804779160      2.17002442638768      0.12843970224802
  C   4.92502109875390      0.97653568120841     -0.04992833947525
  N   5.59749033963362     -0.18104479022507     -0.02711463274348
  C   4.88386589281285     -1.28035137940352     -0.03932690493293
  C   3.48774838870724     -1.32143934495391     -0.06802532542316
  C   3.03258931875192     -2.75323935004202     -0.05502540079550
  N   4.24998453692742     -3.53612303305741     -0.32891528580590
  C   5.41104776581670     -2.69471320406687      0.00179295948977
  H   1.96800814482677      2.36669528018660      0.60531195371527
  H   2.42569532581996      2.59246143766140     -1.06350662633300
  H   3.97590440117422      3.50187693950602      1.40982042714618
  H   3.24936618597746      4.51507690753334      0.17195848639971
  H   4.80647156652642      3.43008646924479     -1.51613693680007
  H   7.09709847235038      6.56151292859944      0.10241975232324
  H   2.25335809410702     -2.95965657219008     -0.78867753042369
  H   2.62556601736676     -3.00461617688853      0.93011413966174
  H   4.27766998350868     -3.75971413788644     -1.31466769958017
  H   6.23441161814253     -2.85442078457990     -0.69224834461868
  H   5.77636589505753     -2.91964010979874      1.00818694402834
