23
Coordinates from ORCA-job 4775optt
  Br  1.34933529381358     -0.44424978928270      0.23929664717107
  C   3.16443054772682     -0.00788461334847      0.20820107005602
  C   3.66809193934360      1.24288365084303      0.34003734192751
  C   5.10748256997930      1.32228469734691      0.31007247762427
  C   5.80303746133816      2.63163928117554      0.56520622581454
  C   5.55231396433398      3.70064920197290     -0.53728834644578
  C   6.65901694979407      4.64512204847394     -0.59615001868980
  C   7.57531851709398      5.41178395265523     -0.63741887991779
  C   4.22644374366232      4.41005525770195     -0.24856174539033
  O   4.17259338597437      5.53542571944389      0.14861508732691
  C   2.95639467003186      3.59370238869532     -0.45405783643146
  C   2.79050226443946      2.44421440922460      0.52917446510553
  O   1.95186865648756      2.48085374406274      1.38534440674900
  N   5.87649067433636      0.30054910447869      0.11383016780455
  C   5.34422238748773     -0.94475085948456     -0.10529914556102
  O   5.92669933896738     -1.93894857651654     -0.36699021354998
  O   3.92415316257768     -1.05939898304761      0.00829510061049
  H   6.86813737655094      2.42310002586184      0.61195523476762
  H   5.48987337600370      3.03734716091166      1.53177495769458
  H   5.46967888933611      3.18946859632390     -1.50213456517610
  H   8.38892036805312      6.09632653524884     -0.67812899642773
  H   2.96756964043684      3.17853380393688     -1.46582343569661
  H   2.11042482223100      4.26329324332198     -0.32494999936551
