28
Coordinates from ORCA-job 4779optt
  Br  1.70275189496956      0.13926507118443      0.97559387958150
  C   3.49627008541455     -0.41116942719550      0.80879371982518
  C   3.88720523301992     -1.34429763271860     -0.12854742769660
  C   3.01544450869815     -2.06286443487868     -1.00037395560557
  C   3.48185303326285     -3.11692361822369     -1.70689176329384
  C   4.83226390459461     -3.53178141279589     -1.56034628194847
  C   5.69655709336821     -2.80725125016186     -0.80618776154923
  C   7.09603451443111     -3.29758512238886     -0.55297337038336
  C   7.38340768070524     -3.54753458539399      0.93011928383554
  O   8.73748545237541     -3.92889045794189      1.09894876662691
  C   9.64417488441548     -2.91599370839683      1.09411384408751
  N   10.88449545554457     -3.08961033173998      1.08749681560063
  N   5.24272536945216     -1.65546847271548     -0.17964819608963
  C   6.15213915099229     -0.70929648998929      0.44256311678112
  N   7.25613968856156     -0.36384822916712     -0.06912395718850
  N   5.71913717876044     -0.22099503382205      1.64849830470626
  C   4.44346429976303     -0.02781114295567      1.78137836462236
  H   1.98043691463315     -1.75926921676842     -1.03910588445695
  H   2.81835567354918     -3.67550302103185     -2.35367894188087
  H   5.18537418265892     -4.43512219115157     -2.03493578464411
  H   7.85756434456345     -2.62176724415674     -0.93947984065741
  H   7.21016984750506     -4.23881972312093     -1.08924766790548
  H   6.78246648770817     -4.37903357632958      1.29547572650339
  H   7.16323897432394     -2.66927413663696      1.54048824279772
  H   9.20717527301823     -1.91479139615757      1.10541242778283
  H   11.11254502394492     -4.08466103209885      1.07084997116069
  H   7.37285501674299     -0.72564912002084     -1.00944597030258
  H   4.09726883302279      0.42694693677432      2.70525433969095
