25
Coordinates from ORCA-job 4787optt
  Br  1.55186677204544     -0.62830381054722     -0.70325690087383
  C   2.79814873785672     -1.95169457405885     -0.13506837159690
  C   3.40999050440674     -1.79959316277557      1.09866364542948
  C   4.19967137419636     -0.52251903559397      1.12999699563187
  C   5.12963870524694     -0.62297358871984      0.16035245762834
  C   5.15094355647636     -1.84358121380727     -0.71448195371835
  C   6.22922721846968     -2.64235899255905     -0.75439858116329
  C   6.07671436477099     -4.06392960822688     -1.03529818843932
  C   6.75128988227079     -5.01085155609287     -0.37951346560829
  S   6.08027372663993     -6.64671451263127     -0.29223591601565
  C   4.56736997127414     -6.30669089724653      0.58702718782068
  O   3.58897200284652     -6.97246789645211      0.51495174560495
  O   4.66450853022237     -5.18270099414281      1.37323202805576
  C   3.73432229514290     -4.20475310077007      1.20911407561172
  C   4.06564403493664     -2.95874514612027      1.60662711687963
  C   3.78532010179850     -2.31119733791901     -1.19656662272622
  N   3.60434187783157     -2.67608024075292     -2.39208517533100
  H   4.13670879475384      0.29331761793085      1.83643906170279
  H   5.93004735918190      0.10216899425567      0.06334213235622
  H   7.16036553041936     -2.30412874015322     -0.30894882732843
  H   5.22036837272486     -4.35013625991717     -1.63497495894135
  H   7.61264739145694     -4.79821002785283      0.24137218837230
  H   2.80358381699110     -4.48994656010823      0.73434750921040
  H   4.98366045012746     -2.83836098352884      2.17092379960505
  H   2.61937462791188     -2.88854837220967     -2.56156098216657
