28
Coordinates from ORCA-job 4791optt
  Br  1.61362428286182     -0.26948896972121     -0.54687296394751
  C   3.45308508350934      0.03767782200024     -0.38630745591707
  C   3.92953412036191      1.28281710616206     -0.19386078754848
  C   3.20934166335361      2.59420720459380     -0.01666001355201
  C   4.33789969878227      3.62360673450259     -0.27676045748330
  C   5.62284241598425      2.90058156004036      0.16689365570255
  C   5.93348979269593      3.10212497521524      1.58692626284440
  C   6.16276317757760      3.27938413459819      2.74827901741983
  N   5.27372534362053      1.50877653005313     -0.11422797565952
  N   6.20105730295346      0.56054293060875     -0.16575338274495
  C   5.78511174953276     -0.64536457808191     -0.34261987001926
  C   4.38398750305811     -1.07757458322124     -0.48344168586143
  N   4.00327266271411     -2.28247883336245     -0.67098414632133
  N   2.59275108179800      2.64714077078889      1.29621802674963
  C   1.65657084688618      3.75510247447525      1.43795033435749
  C   1.24241366019288      3.91797361914354      2.82831744909855
  C   0.92659472205739      4.06283837112025      3.97319974915040
  H   2.41298619111393      2.68559901371017     -0.75741422700415
  H   4.18494277989107      4.55373829275136      0.26523777197810
  H   4.40911292004725      3.84025657668566     -1.34264904218442
  H   6.48878292693569      3.17370451769336     -0.43567977019987
  H   6.37409251838194      3.43223274735553      3.78024267388971
  H   6.55874367455083     -1.40346587541779     -0.39718920228027
  H   4.80195083458801     -2.91339935431188     -0.71236646653121
  H   3.29129612780925      2.66660163780196      2.03206602855099
  H   0.77934540407938      3.53759153928378      0.82172985752662
  H   2.06508300903708      4.71461419573614      1.08786614294004
  H   0.63559850562535      4.18665943979616      4.98886047704646
