24
Coordinates from ORCA-job 4794optt
  Br  1.09438145593675      0.07639157572061      0.10074954069488
  C   2.96958402058989     -0.04534670103114      0.09935026804286
  C   3.66577628786669     -1.22416518622699      0.09888499157275
  C   3.02053900100996     -2.50587133692593      0.09902328099338
  C   3.72841234173096     -3.65674871475970      0.09859429778448
  C   5.15663455372783     -3.62786428890316      0.09805459784668
  C   5.82363384448283     -2.44511902923162      0.09788339997304
  C   7.25552959698038     -2.46598146300241      0.09746647066773
  N   8.40410120827356     -2.45485392322048      0.09779412109063
  C   5.12727525216976     -1.17561187113685      0.09812628862196
  C   5.73723594872653      0.05430833681560      0.09778314380197
  N   7.03771291525804      0.45130308572169      0.09703338519856
  C   7.14960897043131      1.86351590083382      0.09698354777829
  N   8.22180899684603      2.54966356769622      0.09648999360408
  C   5.78463508091839      2.35821080878213      0.09764744307877
  C   4.96368231215423      1.27956088108422      0.09816210408498
  N   3.60003035272251      1.15984313964131      0.09896781568150
  H   1.93963032350128     -2.53532980727221      0.09944558425249
  H   3.21950881230795     -4.61032485692632      0.09866900725317
  H   5.71787406041871     -4.55266119724456      0.09782054638481
  H   7.83371796663020     -0.16629490027055      0.09693002391746
  H   9.05268542840219      1.96289187485530      0.09608969636588
  H   5.53179935945433      3.40411729913065      0.09774508613126
  H   3.03620190945965      1.99636680587038      0.09930536517841
