24
Coordinates from ORCA-job 4799optt
  Br  0.86565423819484     -1.09313932499575     -1.46125373561720
  C   2.59804639214415     -0.57256759528647     -0.94320862135996
  C   2.90412257679004      0.70838443322578     -0.71680512964764
  C   2.04603251752889      1.91112146735079     -0.72424814401255
  C   1.77183791269205      2.42045196544975      0.48445176503186
  C   2.39505678412472      3.71079380047646      0.76443969911133
  C   3.68036025336690      3.76861957710098      0.37288344715781
  C   4.48839405159902      2.69630358962418     -0.30915692113948
  N   5.49889472865453      3.12425481907800     -0.94872067231231
  C   4.21483333420097      1.17877299736895     -0.26523839715574
  C   5.19707786269603      0.32683046873007      0.13482597764031
  N   6.38114527603847      0.70825401355811      0.75212516437303
  C   6.48196493409443      1.67816946295692      1.72794347933532
  O   7.49682214336501      1.91868264437043      2.31685233296013
  C   5.14975988223263     -1.13534803726429     -0.08409688345418
  O   6.09765916862803     -1.84379520414137      0.15817750659615
  S   3.69980850203782     -1.88963156484924     -0.75812205314075
  H   2.24008811749216      2.60728570826383     -1.53567055892476
  H   1.55089520519769      1.76235722683306      1.32166726716207
  H   1.95120647384026      4.50769835708681      1.34895103104996
  H   4.27285644817708      4.65963609974655      0.55082352964597
  H   6.03365566998208      2.36493252277494     -1.37077861764455
  H   7.13162372626479      0.02616797168882      0.72235249809147
  H   5.53120380065736      2.19576460085267      1.92580603625371
