25
Coordinates from ORCA-job 4800optt
  Br  1.01082209303016      0.22844199234866     -0.08620092550322
  C   2.88869389257249      0.03883305881834      0.02308252596590
  C   3.45861914710182     -1.20960617215895      0.16064630471136
  C   2.68400468293608     -2.49688448740000      0.18679401633894
  C   3.55162810656942     -3.67530711807247     -0.27944580794787
  C   2.82935953992319     -4.93587138646683     -0.14349229438223
  C   2.22953784901016     -5.96191311742464      0.00050377026986
  C   4.85425528003593     -3.68658044557977      0.54433704440956
  N   5.51794280313203     -2.42312099224819      0.44744356214191
  C   4.87270826058523     -1.23953374989258      0.26173650551105
  N   5.63955264555014     -0.15720476338812      0.18080051087911
  C   5.03446932670945      1.01645020019705      0.03341709794515
  C   3.66393887766729      1.19216727267107     -0.03808057940022
  C   5.89071483583154      2.18036976038109     -0.04678332090744
  N   6.53617685537748      3.12528341297216     -0.11154135179096
  C   5.79420417688735     -4.79089150715773      0.10588530649798
  O   6.94408574519053     -4.59448389619762     -0.16520495740091
  H   1.80569435469715     -2.42204220389461     -0.45309140910457
  H   2.31841591920777     -2.70499241811487      1.19698861697619
  H   3.81940235905294     -3.52176951755830     -1.32955042107135
  H   1.69375087452994     -6.87389003914210      0.11896583801283
  H   4.57485798423896     -3.92994667600674      1.58209689747120
  H   6.52362888907643     -2.42740711308801      0.34540208704292
  H   3.22612759692531      2.17249584715679     -0.14353506562641
  H   5.34740790416114     -5.79859594075360      0.06982604896122
