28
Coordinates from ORCA-job 4801optt
  Br  0.97998927096630      0.15110737022933      0.17054836313541
  C   2.85786593385327      0.02123753219031      0.08315038134355
  C   3.47177850761800     -1.20467739431480      0.00833319276051
  C   3.11403702900682     -2.57498165498147     -0.04418124126585
  C   4.31180764860823     -3.25425588920136     -0.11909669562170
  C   4.50073468675135     -4.74045439069673     -0.20570713103357
  C   5.09908123520449     -5.15087310150530     -1.47668932436228
  C   5.58207920089914     -5.48087471441977     -2.52123927568045
  N   5.42041377419178     -2.44049724288374     -0.11471498821091
  C   4.91909502105801     -1.22812013679637     -0.04242884968541
  N   5.63597433570662     -0.07398992760555     -0.01585238217168
  C   7.09495822782567     -0.15278831863727     -0.09897199523066
  C   7.55183720083389     -0.50481780346706     -1.51744755463575
  C   9.00708310231481     -0.46416114994929     -1.60300062230719
  C   10.20272256113365     -0.40977263702301     -1.63288829189087
  C   4.99461985152185      1.11089680784107      0.04733882691994
  C   3.62530231569426      1.19463360398221      0.09967821652151
  H   2.12090255696210     -2.99187048463688     -0.03658211451609
  H   3.53900573489924     -5.23981140446872     -0.08012600133017
  H   5.15197992723299     -5.06427987669188      0.61047669497165
  H   6.01273244654372     -5.77611716646289     -3.44757069830416
  H   7.42768655361600     -0.92321309035806      0.59428110042057
  H   7.49944443555409      0.80904604028720      0.20986097852890
  H   7.12178866111391      0.20484758976481     -2.22820625059818
  H   7.18346865735153     -1.50105143744838     -1.76744536392032
  H   11.26502252412073     -0.37089434661985     -1.67238993324699
  H   5.62343067006198      1.98932482856834      0.06025064155136
  H   3.15415792935548      2.16340839530517      0.15862031785884
