26
Coordinates from ORCA-job 4803optt
  Br  1.40576454478186     -0.23566709383682      0.30530931057026
  C   3.19023045585273     -0.21166033447396     -0.22498765104804
  C   3.82692426860866      0.90800072468696     -0.58111242697659
  C   5.24307146052977      0.83242518655141     -0.91667275186748
  C   6.05353736884771      2.07359988084401     -1.19092414720283
  C   6.64255507551132      2.69268519748828      0.09024545717402
  C   5.74885919255166      3.61816086574126      0.91388493904329
  C   4.38211772790509      3.02724367900756      1.31201469660534
  N   3.38533006125208      3.14501953640935      0.26292803347311
  C   3.13181397687363      2.23620409060474     -0.71531040965683
  O   2.42357746544078      2.47164294791068     -1.66307599620746
  C   3.87743925380190      3.70472571243437      2.51701692277281
  N   3.51647268169565      4.26881336466038      3.44571453931916
  N   5.89338217722305     -0.26674560471310     -0.94597764064091
  O   5.22500142353518     -1.42817750700159     -0.63974929395327
  C   3.91426254974099     -1.48878485643524     -0.22977490851281
  N   3.39257773924179     -2.58217564770118      0.10038304508339
  H   5.45378476855591      2.80112977713433     -1.74314014528457
  H   6.87841313045467      1.77062504564135     -1.83343347389923
  H   7.52326727188979      3.27161728063762     -0.19162290312154
  H   7.00335765571984      1.87698970228186      0.72235792480756
  H   5.55251064435785      4.54653740248162      0.37184778541615
  H   6.28645471513665      3.89165427617804      1.82304506426867
  H   4.48983868486430      1.96929678619738      1.56663376669383
  H   2.96605496999361      4.05357472227377      0.11195577715592
  H   4.06040073563349     -3.34773513500315      0.02344448598804
