26
Coordinates from ORCA-job 4814optt
  Br  0.11865446359531     -0.30622801161467     -1.55566834385582
  C   1.29493099065733      1.09360556524786     -1.97964746349333
  C   2.20601040414196      1.93687780955883     -1.12407871262291
  C   2.17532296687947      1.92491274561780      0.39320892865576
  C   0.84172903232055      2.07723185357738      1.14237350289312
  C   0.25993780191837      3.38860508447499      0.88288613651837
  C   -0.09862879126045      4.43841447760675      0.42386718739005
  C   -0.31391375205645      5.39500829642396     -0.67711979182433
  N   0.45264615925400      4.85771532362078     -1.81639336947642
  C   0.09781503216263      3.53789767261489     -2.12089361130312
  N   -1.10595452869132      3.24471130209448     -2.37584729807751
  C   1.20193921768836      2.54007408233161     -2.10645413501922
  C   1.71624734544742      1.70482274788652     -3.24912559713084
  S   3.50682081793472      1.79886942791345     -3.46112468748587
  C   3.61436041938799      1.96276365144008     -1.69494346865810
  N   4.63535399379203      2.08131727001608     -0.96966659175795
  H   2.85719035850567      2.70647458270203      0.72841363359335
  H   2.63906221541878      0.98092037748107      0.69084055185562
  H   1.04206277436825      1.93642519758226      2.20593173435930
  H   0.12988099298400      1.30244262204610      0.85161692569348
  H   0.03875377759913      6.39919555645760     -0.45226404603640
  H   -1.36439001375753      5.44740599871789     -0.95433013480422
  H   1.44291622538459      4.92206030732350     -1.61740320399744
  H   -1.22748555608851      2.24437640941981     -2.51390706783741
  H   1.10407564008492      1.61287535265702     -4.13551394928009
  H   5.50566201232878      2.07922429680189     -1.49675712829804
