27
Coordinates from ORCA-job 4815optt
  Br  1.55878490160966      0.00369369500642      2.18566006494487
  C   2.96137867472822      0.04834860398166      0.88958184346614
  C   3.68956198766207      1.22697716949285      0.68594574359767
  C   3.43279908433002      2.50820576503580      1.41534937061238
  C   3.29111106056573      3.73569558646085      0.49877734965782
  C   2.39424814375072      3.47028680709253     -0.72602016422814
  C   1.08977110254511      2.94949462948250     -0.33447120330923
  C   0.04040955386180      2.50543405581374      0.03445262077054
  N   4.54956326334570      4.29072992756754      0.05716449557065
  C   5.47746323819612      3.56763675899173     -0.40499567387957
  N   5.56544718459125      2.18624288437896     -0.58218220538013
  C   4.71731874595786      1.13157077926368     -0.25783396148710
  C   4.95376915557895     -0.08625077260639     -0.90156105669678
  C   4.15399125690660     -1.16262520274537     -0.59713049549270
  N   3.16429062567038     -1.10008040501650      0.29173992761065
  C   6.68911515743583      4.21951919140246     -0.86538369406142
  C   7.69787628294468      4.72432632123930     -1.26467867221057
  H   4.25011567808847      2.70829709430416      2.11347673969977
  H   2.52335108501173      2.41321851087991      2.00168091356483
  H   2.80451506122492      4.51530541399531      1.08661973051962
  H   2.88280037885419      2.75796995943111     -1.39553747281022
  H   2.27978305635597      4.40423320890927     -1.27801453311588
  H   -0.88948140601938      2.10394641114965      0.35964192194178
  H   6.38494868746428      1.91074369977311     -1.10165870156503
  H   5.74563141643448     -0.17719772279308     -1.63400580488067
  H   4.30415500723978     -2.12051253672533     -1.08068479834471
  H   8.58628161566480      5.19579016623412     -1.61293228449457
