25
Coordinates from ORCA-job 4819optt
  Br  0.95580429257117      0.02779868674868     -0.05126854333397
  C   2.83331858135957     -0.02345490896841     -0.05784129307439
  C   3.56577153235221     -1.14559276753586     -0.06012250232707
  C   3.24854903019240     -2.57104410007643     -0.05944926841972
  C   1.89737368654621     -3.20865421781804     -0.05864277514592
  C   1.98765320203025     -4.73551914137568     -0.05932554633881
  C   0.66340153041674     -5.34858717903056     -0.06035207298784
  C   -0.43079005536028     -5.83529600889250     -0.06113016110524
  N   4.34431664497009     -3.27374984810905     -0.06108812969853
  C   5.42810377799780     -2.40595120012388     -0.06293853816218
  N   6.71530153857155     -2.89368849363268     -0.06424551335891
  C   7.06259357494296     -4.22059092813696     -0.06310080344592
  O   8.20568277421815     -4.59819320487643     -0.06356790651456
  C   5.03403758912330     -1.10571354110708     -0.06296810033455
  N   5.81361827857614      0.01734227193225     -0.06479301617745
  C   5.27974002025361      1.16552621499160     -0.06396394061637
  S   3.54964411217473      1.55657932955502     -0.05973728297270
  H   1.33081397955002     -2.86986116997588     -0.92989980268868
  H   1.33171089020252     -2.87041388884719      0.81336320706692
  H   2.55061622920532     -5.07035889722408      0.81340707897797
  H   2.55147282442118     -5.06944048538208     -0.93185745110913
  H   -1.39799109036654     -6.27740208514846     -0.06182196618505
  H   7.46974883513358     -2.21987327701183     -0.06529289912000
  H   6.19249129710363     -4.88692715818116     -0.06177534819720
  H   5.89001692381366      2.06306599822673     -0.06558742473070
