31
Coordinates from ORCA-job 4824optt
  Br  2.29493371779520      1.49756420433358      3.26032681363284
  C   2.72554494916581      1.17132682965182      1.45961526145108
  C   3.47753706665235      1.96410330718943      0.68620636589237
  C   3.71013310348429      3.42130803395734      0.92125477173675
  C   2.65267004834323      4.16807376528735      0.07156031601548
  C   1.19492493587243      3.95758284493321      0.53021858133007
  C   0.19457771395420      3.70157079063964     -0.60312066443820
  C   0.17251939401010      2.27057316858962     -1.14783921405171
  N   -0.40767346509939      1.35059451125192     -0.16946625542102
  C   -0.39442051292564     -0.01846392363214     -0.10874258366660
  O   -1.26134478390391     -0.62187217436440      0.48229768581985
  C   0.78480186427648     -0.80032308094373     -0.71722073644457
  C   2.06908517404061     -0.16068685264032     -0.31648392423381
  O   2.11183978045736      0.05447761393815      1.02728289564594
  C   2.99610459072290      0.35901266427752     -1.12577249121752
  C   3.85874003758249      1.43766154790475     -0.64673750144496
  O   4.70733549802642      1.97167581785185     -1.33221460857384
  H   4.70781348166983      3.69621551859767      0.58214592979958
  H   3.61159653173846      3.67867054411434      1.97512338056162
  H   2.77557999211747      3.83969758428438     -0.96471412485177
  H   2.88866953119917      5.23365325188166      0.07590134135551
  H   0.87094921597920      4.83740413556752      1.08862830172424
  H   1.12680851310172      3.12550572652445      1.23272913401159
  H   -0.81608025862330      3.94738513025174     -0.26228526138079
  H   0.40278059272091      4.37409529364067     -1.43929485211120
  H   1.18000483289348      1.95146603986898     -1.39918044644500
  H   -0.41547028829521      2.25383500238349     -2.07094327005084
  H   -1.23489213639356      1.70603168488994      0.29461313709363
  H   0.71515070413650     -0.82219535332665     -1.80535684741229
  H   0.67915757549474     -1.81412156072718     -0.33447145841932
  H   2.96862259980563      0.16317793382337     -2.18905967590710
