27
Coordinates from ORCA-job 4825optt
  Br  2.13795178131448      0.10618993128169     -2.65939869943178
  C   2.97893702405082      0.40183579578455     -0.98852023908317
  C   3.46147560580849      1.62745784038174     -0.67269349039071
  C   3.15065672047181      2.87847967129301     -1.45105711451445
  C   1.67146792358664      3.26205128993912     -1.20767355242140
  C   1.31377852911612      3.60067412779914      0.26217016552187
  C   -0.02182313274357      3.04972642399225      0.68768417438302
  C   -0.26129292750321      1.77929911354607      0.99247539863676
  N   0.74804923207574      0.77586647235717      0.96752436533210
  C   1.87205556697642      0.80412580931419      1.74741622234924
  O   1.98845389828114      1.49005114845722      2.73500918596097
  C   3.00185368522911     -0.09709454844449      1.29050957516326
  C   4.27480263878694      0.34229892598877      1.36639119718744
  S   4.40337028971522      2.01002774837265      0.80994572106076
  C   2.88167390260878     -0.77927512246120     -0.04047042221052
  N   2.71656451443232     -1.96650559148312     -0.42494812334115
  H   3.30948563978566      2.71560723591316     -2.51698222075019
  H   3.81064188043616      3.68956982250623     -1.13531301350364
  H   1.05296746459108      2.43003966645344     -1.54201104467923
  H   1.42940929160541      4.10617537729807     -1.85572512453442
  H   1.31431944131302      4.68250427977938      0.39537830047208
  H   2.07218132756778      3.21647873483872      0.94223124499368
  H   -0.86504652712369      3.72887786148180      0.74390625791978
  H   -1.25542879876561      1.44055898197966      1.25730780733817
  H   0.69386511203995      0.09022628422919      0.22815467481840
  H   5.08039576821588     -0.30037213599427      1.02462803545353
  H   2.64223414812708     -2.59787514460417      0.37106071826958
