25
Coordinates from ORCA-job 4826optt
  Br  2.42168446726967      0.96256598650067     -3.08398943858811
  C   2.79497713822476      0.68433803737043     -1.25291973857445
  C   3.56877153418821      1.53165160686156     -0.54551732095716
  C   3.79025897068897      2.96613351822165     -0.91923810362999
  C   2.57310304301706      3.74833569337134     -0.31980487251733
  C   1.23717168990519      3.27781901836729     -0.82714568375322
  C   0.28871946487141      2.58422311654154     -0.19725626478402
  C   0.23824242222641      2.14094404749503      1.24474405815737
  N   -0.27237695979613      0.77880456038202      1.44824646485508
  C   0.43201284830155     -0.39519828513599      1.43812029838389
  O   -0.00441013080906     -1.45213798370415      1.80995661932787
  C   1.81638297890763     -0.16849516263924      0.86374694864801
  N   2.69267812788115      0.30800583792165      1.65514696417070
  S   3.98936934175755      1.17565651033771      1.10016207812518
  C   1.94200532213945     -0.32816848735757     -0.62011956464731
  O   1.25610000832064     -1.12478402437115     -1.20872254440721
  H   3.83512859540440      3.08465441850708     -1.99966336832820
  H   4.70820065447420      3.36568293463699     -0.48598894640016
  H   2.70504117922110      4.79893815113774     -0.58852939426213
  H   2.63083235614188      3.68421263821179      0.76672070380772
  H   1.04583499647190      3.51324694473280     -1.86983939373520
  H   -0.59589288036982      2.31738513575592     -0.76900726974186
  H   -0.45266828241737      2.79637336999920      1.77940584000773
  H   1.20362529631743      2.25168050571307      1.73587573284075
  H   -1.21579218233822      0.67613191114256      1.79261619600205
