28
Coordinates from ORCA-job 4827optt
  Br  1.08917622148998      0.17576032721412     -0.27413719305426
  C   2.97639253662257      0.05087322836147     -0.27024176065941
  C   3.61319668647857     -1.18517494737417     -0.19444527476879
  C   2.91007275890177     -2.51369501753428     -0.13205345449021
  C   2.44755725394318     -2.88009634658863      1.28918963173327
  C   3.54924301565472     -3.00901600765468      2.33753919965571
  C   2.98308168475715     -3.33692238905301      3.72418754098497
  C   2.03863275614606     -2.32448290701247      4.19745313911109
  N   1.29665326653157     -1.52322043715705      4.54498182172062
  C   3.81265533969126     -3.54708211970443     -0.78592218396051
  O   5.11857313161444     -3.58933441247064     -0.21231911195715
  C   5.77929505418042     -2.44029152018624      0.03372568827826
  O   6.89454850881407     -2.47145602477917      0.44807911311733
  C   5.00929292868073     -1.15690729531178     -0.17416294537821
  N   5.74525359415809     -0.05466028636850     -0.25381105435557
  C   5.10764982966225      1.09953469232144     -0.35622850910577
  C   3.72144585438529      1.21054271018011     -0.35881598690897
  H   2.01177999821759     -2.45200727188423     -0.75163682343581
  H   1.89458346952232     -3.82279940441646      1.22791148504697
  H   1.73283129025862     -2.12003667458335      1.61619823008532
  H   4.12552514932184     -2.08252847541644      2.40096819779333
  H   4.24794686431031     -3.80238882024692      2.07207708140296
  H   3.78756496119089     -3.42071476499128      4.45550696416659
  H   2.46019908013120     -4.29563757421440      3.70487805747372
  H   3.90583994023523     -3.33992132697954     -1.85502381549594
  H   3.41255286804399     -4.55247842311329     -0.66071526487868
  H   5.72261222646262      1.98904876943776     -0.43137232721815
  H   3.24184373059323      2.17609271952608     -0.43281044490273
