30
Coordinates from ORCA-job 4828optt
  Br  1.26088875376985      0.16141550523410     -0.38625317890389
  C   3.11826206701273     -0.11011269564868     -0.24355064911177
  C   3.68691195422514     -1.30611228660154     -0.06462447115618
  C   2.86619131479649     -2.55937638711750      0.09416824452142
  C   3.60717309976340     -3.82198520704013     -0.30931730682440
  C   4.93944312224283     -3.84137640157055      0.41510565362647
  C   5.80148591526031     -2.64787962354673      0.03604423379025
  C   6.41133669184907     -2.78179907986596     -1.37134717415249
  N   7.32472333270970     -3.90464082470550     -1.47619185989159
  C   8.51172007496290     -3.90756500833352     -0.82901103124218
  O   8.87670832429285     -3.03097590731779     -0.07811102041800
  N   5.08435028853712     -1.36688771452192      0.11094864284853
  C   5.89358495476474     -0.21959525345510      0.18420470649033
  N   7.14897953521234     -0.16585504419090      0.31708690830650
  C   5.19757694017983      1.12640509253739      0.03361427438671
  O   5.77944183498646      2.17470089226786      0.10099701919448
  N   3.85680170882669      1.06198356342455     -0.24176067653401
  H   1.94672425602925     -2.44951445636733     -0.47496647675898
  H   2.57732095603442     -2.64677748675256      1.14791670160296
  H   3.75065007050086     -3.84648457280946     -1.39270499943817
  H   3.01172265399995     -4.69702475803515     -0.04853742757125
  H   5.51033970724212     -4.74600822825597      0.20220148162922
  H   4.76186100459261     -3.82250314662542      1.49337286074776
  H   6.62239138070582     -2.59726380794481      0.74941151422645
  H   6.94749348795097     -1.86369306782733     -1.61620000221018
  H   5.62050848401616     -2.91288811134734     -2.10892335087739
  H   7.11839577516928     -4.66526446202667     -2.10024688555024
  H   9.12470226959780     -4.79530164184338     -1.04694514179860
  H   7.63588384996138     -1.05788638816385      0.36967633663301
  H   3.39342619080683      1.94726650845121     -0.38605692556475
