26
Coordinates from ORCA-job 4831optt
  Br  1.21827626264345      0.25313984576953      0.86219964701893
  C   3.02145674584550     -0.06783807353105      0.44233684680581
  C   3.51928614335147     -1.29006734137626      0.18468644164479
  C   2.78472362549367     -2.59815192253729      0.29122378333146
  C   3.60914348393096     -3.62373937152489      1.08452662338015
  C   4.66656217362397     -4.40214329212403      0.29008778984945
  C   5.42622847176996     -3.61484533870073     -0.79304641487272
  C   4.68279383581663     -3.59495314971200     -2.06901518962757
  N   4.09379269602217     -3.60280761879583     -3.05121299030266
  N   5.77230448958974     -2.25910246407299     -0.40870688284002
  N   7.03759126415750     -1.82112965314071     -0.59687434879876
  C   7.00371672408990     -0.52595068099896     -0.37169859268265
  C   5.69438741058898     -0.10220397300988     -0.05630368336995
  C   4.93057353666297     -1.24966805372767     -0.09650498822711
  C   5.08390829999867      1.17399126010642      0.24431600520934
  N   5.56410338494665      2.33060230710165      0.34276983914273
  O   3.70704193014396      1.08529162905753      0.44625177974242
  H   2.53762002555181     -2.98400756237276     -0.70157915134578
  H   1.83938012670822     -2.42577734371743      0.80089297887137
  H   2.93576540791421     -4.35647813413416      1.53004885809347
  H   4.09008624247773     -3.10637108755720      1.91697449664983
  H   4.20676084851602     -5.25481147415035     -0.21171981007999
  H   5.40540160051459     -4.80199250720789      0.98484221039267
  H   6.38059792023042     -4.10172242761502     -0.99329397125973
  H   7.90987925175886      0.05444740008432     -0.44145008965329
  H   6.56561809765194      2.31828902788766      0.17424881292783
