23
Coordinates from ORCA-job 4837optt
  Br  1.23443017577750      0.78520786286656     -0.05294394092239
  C   3.03586967863919      0.26690218341670     -0.05266989574573
  C   3.57187633734174     -0.96386746767298     -0.05238831378407
  C   2.90159772202855     -2.27815498550052     -0.05237532916453
  C   1.40365176091902     -2.42797111603910     -0.05320131290592
  C   0.91900488811631     -3.87857825702805     -0.05356804153726
  C   -0.54018175575092     -3.92819770469543     -0.05439087014511
  C   -1.73735248218982     -3.94140470207254     -0.05441243999415
  N   3.52522027706511     -3.39631186091869     -0.05178598260481
  O   4.92388299243096     -3.41832251753037     -0.05106325815044
  C   5.59715657280296     -2.28347037644079     -0.05135020756919
  C   5.02645054009163     -1.06676281974590     -0.05205394827825
  C   5.89215420382035      0.10904454533591     -0.05226679255690
  O   7.09323315247351      0.09543856284523     -0.05213382661530
  C   5.16138614703656      1.45736450989994     -0.05257234019500
  O   5.69766209496296      2.50959907115682     -0.05267214784504
  O   3.78849415590228      1.40259357540694     -0.05271721255835
  H   1.00315263018716     -1.90737872834226     -0.92454750797871
  H   1.00215689317060     -1.90749724851655      0.81775090834720
  H   1.30681265784010     -4.40465486363342      0.81940063373853
  H   1.30789788364009     -4.40455027105626     -0.92611708960155
  H   -2.80087684885029     -3.96406270917280     -0.05498995046327
  H   6.67032032254442     -2.42896468256241     -0.05093113346975
