23
Coordinates from ORCA-job 4840optt
  Br  0.93240803854892     -0.45136132049575     -0.28158456923849
  C   2.80091065351498     -0.35117415760026     -0.23840741051865
  C   3.46166166932420      0.76144916604758      0.16101623870160
  C   2.76666417005853      1.98627102456080      0.59074450802868
  C   3.13645514600775      3.19818274357956      0.18909537305890
  C   4.26963760410140      3.44146847633793     -0.76981975398416
  C   5.65796307869052      3.43450414735899     -0.10170217473110
  C   5.85506897480487      4.59671545288511      0.75599041239427
  N   5.98044889291887      5.54164254194133      1.39011571157830
  S   5.94027870798247      1.92356887359590      0.89764553001177
  O   5.43993545737902      2.15089796442149      2.21643012299289
  O   7.30353437016226      1.53615684686453      0.67920811867075
  C   4.91154723112777      0.71010182187295      0.12765649659714
  C   5.53430562054896     -0.39087050078010     -0.32519045809581
  O   4.87668709518677     -1.46489267178059     -0.74393906212949
  C   3.48794033019681     -1.55817391123814     -0.71062239895254
  O   2.99067537185308     -2.57324972372881     -1.07288574698716
  H   1.91300615945826      1.85893613263900      1.24392095818020
  H   2.59682817701928      4.06190235165117      0.55732561267686
  H   4.15057248655500      4.40756087454681     -1.25948438492212
  H   4.27598944530657      2.68015540650639     -1.55040876623035
  H   6.44386948266370      3.41503159215135     -0.85797814708319
  H   6.60961183658999     -0.49682313133726     -0.36612621001830
