32
Coordinates from ORCA-job 4846optt
  Br  1.01241455507906      0.56792675346945     -0.20723993819927
  C   2.86958045033579      0.26511076941940     -0.10387059226604
  C   3.40399215510023     -0.92526354791019     -0.46721068609162
  C   2.61214380314028     -2.07166174476936     -1.03071446329724
  C   2.09738558069874     -3.05309489985544      0.03224176365416
  C   3.13988068227994     -4.02057995181149      0.59413024823372
  C   4.28173077991785     -3.37715712586356      1.39269067972782
  C   5.55395336600366     -3.13337402773120      0.59783096437175
  O   5.37760192098598     -2.32167034480163     -0.56554515422936
  C   4.82390129986773     -1.09574256491151     -0.30757737812986
  C   5.58721502813122     -0.05749701656119      0.07278037008720
  N   5.03983804213153      1.16829597726073      0.35697159317309
  C   5.93061455213785      2.26882440171749      0.68683272273487
  C   6.02827214889436      2.52835616770510      2.12642612382863
  C   6.11050762180964      2.73494119691427      3.30175514988722
  C   3.65558767016934      1.39190543780030      0.41200754801848
  N   3.09773928588371      2.46194379778335      0.82765019233164
  H   3.24199880220633     -2.61050646786357     -1.74007626609271
  H   1.76213241759952     -1.66366864378663     -1.57398219696747
  H   1.29630148898403     -3.64103629008199     -0.42079708633262
  H   1.64198372850240     -2.48541781224412      0.84903205828247
  H   3.56152897010986     -4.60878185947038     -0.22744851242618
  H   2.61501759619812     -4.72704830982709      1.24001632711080
  H   4.56901839506513     -4.02989292133488      2.22089110655037
  H   3.94207496837091     -2.44271502534944      1.84966251121303
  H   5.94943163985561     -4.07654413473121      0.21895058587439
  H   6.31206182035319     -2.67117093263178      1.23950840120787
  H   6.66061537879452     -0.14627133276060      0.16674802658788
  H   5.58068056003061      3.16696038333109      0.17208052836425
  H   6.91790754715758      2.03362016947090      0.29111155602292
  H   6.17658773792470      2.91836117329186      4.34793683548726
  H   3.74630000628053      3.13884872613335      1.21320698128253
