22
Coordinates from ORCA-job 4847optt
  Br  1.27924444309477     -0.27687166761114     -0.75996681885465
  C   3.12335598124803     -0.02069647021600     -0.43381400746115
  C   3.58961978671569      1.24657037627224     -0.10482304902088
  C   2.86031481282067      2.53946743234929      0.09575479178841
  C   4.01687291127825      3.58026944423766      0.25342498543862
  C   3.81760691042648      4.61627987785805      1.25103682567552
  C   3.65634438221969      5.44734403838489      2.09596264623413
  C   5.29683249143495      2.74153904803099      0.50366826511798
  O   6.34452205901644      3.15319651640122      0.88527026549000
  C   4.94287458238825      1.32924766869820      0.13641532633487
  N   5.79005443102119      0.30999871576381      0.06498738944719
  C   5.22600648918015     -0.83953864868889     -0.26657281983104
  N   3.92610804366657     -1.05010357367180     -0.52124718907132
  C   1.98992467610420      2.47542977981367      1.35593057187468
  O   2.25906983073019      1.75611340580765      2.27753150753999
  C   0.83107816307446      3.35308764067484      1.35411874635393
  C   -0.12007424515650      4.07897086344520      1.30206342127672
  H   2.22179856454055      2.78920484192297     -0.75200099292690
  H   4.17866870690094      4.05028043699788     -0.72242988442728
  H   3.51685582878889      6.18702002626391      2.84820847773819
  H   5.86970400353613     -1.70773527255197     -0.33782907439102
  H   -0.97178285303004      4.71792551981725      1.27631061567400
