26
Coordinates from ORCA-job 4848optt
  Br  0.98773614428119     -0.19846580419737      0.05810549551064
  C   2.87643963838064     -0.16949488279297      0.02508366759193
  C   3.60649313863506     -1.31029185402692      0.03108600956639
  C   2.91433486625155     -2.65463903076931      0.08158044437545
  C   3.80822845908997     -3.81925179539223     -0.30389083262625
  C   5.11964106600541     -3.75015812539749      0.46119029208000
  C   5.87997756209874     -2.48424791889661      0.04824348584259
  C   6.43915606348446     -2.72552638021302     -1.34417575026940
  O   5.94595707355616     -2.31241145558101     -2.35289120113109
  C   5.05047905834511     -1.21596902941660      0.05221976214429
  N   5.77643726171363     -0.14665748773661      0.05935416549428
  C   5.29944214299523      1.13599263798993      0.02569602467968
  O   5.97091322213762      2.12415378473382      0.01610187922912
  S   3.50353543708127      1.41792236718699      0.00409039128155
  O   2.44470467664989     -2.82720345521215      1.42725238844909
  C   1.32175322989679     -3.56986206528674      1.58113463504208
  N   0.85929960180164     -3.94143217961535      2.68331875666091
  H   2.04967580207943     -2.62476465269328     -0.58534780720493
  H   3.98826994898647     -3.78331184680595     -1.38113041330851
  H   3.27496838565485     -4.74705709420512     -0.08968411015556
  H   5.73572367323205     -4.62996084411509      0.26450171949107
  H   4.92316179971726     -3.72678994498789      1.53419214362756
  H   6.72911881316090     -2.31320941366163      0.71199148396985
  H   7.32946744624797     -3.38274638752946     -1.36978816615933
  H   0.81433542180631     -3.82146673550926      0.64816306792926
  H   1.44775006671033     -3.62715040586864      3.45560246788934
