28
Coordinates from ORCA-job 4852optt
  Br  1.12514179714851      0.51081914503492     -0.80221981062548
  C   2.96805266168375      0.15298484858161     -0.56776174202521
  C   3.53312043198291     -1.07736972132892     -0.70003000962311
  C   2.67815490091195     -2.26815594699210     -1.09256782872552
  C   2.23996049638043     -3.19308492214251      0.06387142286226
  C   3.30850263577942     -4.05007717840304      0.73490655549473
  C   4.32844053851617     -3.29851462730960      1.61188315752057
  C   5.67590521717348     -3.09491364575152      0.95487858677442
  O   6.70027326624077     -3.42514746255002      1.48913521989008
  C   5.70203662541029     -2.45604855903313     -0.43127413195875
  C   4.95603534256723     -1.14433924929518     -0.44104669129715
  C   5.66549654695400     -0.03185079987422     -0.12466381292168
  C   5.06334912988250      1.27465366658734     -0.00247085895938
  O   5.61214050687271      2.31669810340178      0.27987753126044
  N   3.68106080385527      1.25406838446456     -0.23516495570455
  C   3.24690966415310     -3.04755214433789     -2.19999168091001
  N   3.65424080237150     -3.68588969857444     -3.06022534615442
  H   1.75511843184727     -1.86420127156034     -1.50911460652318
  H   1.47001146181398     -3.85492606827683     -0.33785980299125
  H   1.75671894857021     -2.55380549757967      0.80786163240880
  H   3.82104912419254     -4.65729610364490     -0.01746512271990
  H   2.78225017395712     -4.76046383605639      1.37290604751368
  H   4.51846943205518     -3.83817850751120      2.53743416889052
  H   3.93387013390004     -2.31332782217198      1.88305099699096
  H   5.30013322056727     -3.16956380214457     -1.14929769915839
  H   6.74726517973136     -2.28954870729660     -0.68045653495662
  H   6.72768185923039     -0.08695247861946      0.07137352734718
  H   3.21661066625057      2.14798390238432     -0.14856821169905
