29
Coordinates from ORCA-job 4854optt
  Br  2.39764923255935      0.32378588665507     -3.50672602871090
  C   3.57313551373632      0.31076874949952     -2.04269851973624
  C   3.67307648641526      1.30332834481774     -1.13979242681121
  C   2.71621341911049      2.44617983258312     -0.99215736216851
  C   1.56137835533388      2.06422295081584     -0.01873222264505
  C   1.99516976660817      1.60108613804938      1.40005153375172
  C   2.19787913235177      0.08223709966443      1.55264804327019
  C   3.18308943641857     -0.31868874984850      2.66073175417160
  O   4.51791281363514      0.15130288091459      2.54612067367805
  C   5.35814139190699     -0.55728563783904      1.65376457412050
  C   5.01849530437887     -0.19453908270701      0.22989528901342
  C   4.54182025194072      1.03262251123422     -0.03476437145200
  C   4.92632362899437     -1.22404245213010     -0.78782628658124
  O   5.35559429677892     -2.33587024966035     -0.74456140580861
  O   4.26420300373882     -0.82696686612373     -1.96171249040167
  C   0.67475424395984      3.22728000932487      0.08704129387573
  N   0.00667327393720      4.15495832237642      0.17038114579428
  H   2.28759748142738      2.73908841647428     -1.94891898368783
  H   3.23734076885254      3.31392398225667     -0.58282975615082
  H   0.97924502913080      1.26409242092997     -0.48692685749375
  H   1.22436668264415      1.91128334700073      2.10627327982748
  H   2.89278524376881      2.14561138869370      1.69532112878159
  H   2.47297268786798     -0.38072952256179      0.60563647571068
  H   1.24037582364447     -0.36975222137782      1.82631765865743
  H   3.19073861930157     -1.41128024952495      2.74792179348518
  H   2.82723971127923      0.08767153877258      3.60956970698820
  H   5.24810570107464     -1.63943579543375      1.77941317484806
  H   6.38081130217514     -0.28929272365829      1.92058028085514
  H   4.65091139702856      1.79543973080220      0.72497890481857
