24
Coordinates from ORCA-job 4863optt
  Br  3.35434925408340     -1.36398855559360      2.15215154055314
  C   3.22322462313771     -0.24732445347174      0.65555878467285
  C   2.69956601972241      0.97762098928683      0.68946680081598
  C   2.03342210107663      1.77594694243778      1.74590186671817
  C   0.68979599409275      1.88658632537447      1.65670487832967
  C   0.26926070057112      3.22916766869134      1.30595801684115
  C   -0.41816305643065      3.39385190964622      0.14063855979902
  C   -1.50000172594107      2.47362723173472     -0.24196930691130
  O   -2.01873175551455      2.45632053136322     -1.33056598696797
  C   0.21386753412241      4.19518150116081     -0.93253134436707
  C   1.46265884713519      3.84592818243247     -1.31094734083307
  N   2.12889571466626      2.86527036573926     -0.61095623140074
  C   2.61325127156252      1.72484806363287     -0.59634049489970
  O   3.01076549402313      1.05236786492311     -1.75031598073775
  C   3.56706587230460     -0.18244212118191     -1.75730770326051
  O   3.92325461144956     -0.69535309891702     -2.77122909044231
  N   3.69087280567454     -0.79019829249969     -0.52152166727144
  H   2.59797983515349      2.64622885272074      2.06655453133054
  H   0.12450783897357      1.05349017371830      1.25523333537727
  H   0.95499117045707      4.01772225986024      1.59687723750221
  H   -1.86231212010968      1.80856326085421      0.56531902662621
  H   -0.35435301344659      4.88036724812677     -1.54721415298385
  H   1.95055507659754      4.32136269751498     -2.15608423736232
  H   4.09427690663858     -1.71414554755443     -0.53338104112817
