27
Coordinates from ORCA-job 4864optt
  Br  3.63371565576756      1.35133566393505      0.38420128885846
  C   4.74159665015997     -0.02503652479973      1.08590716198159
  C   6.07968671482288      0.16847696223366      1.27069215478866
  C   6.72006022301751      0.58677696328172      0.00365402930851
  C   6.46370684379516     -0.28543650984603     -0.98685077359975
  C   7.18482715559090     -0.24665568074437     -2.30734935292400
  C   8.39136746508587     -1.21176180470494     -2.34721408184347
  C   9.28920543927667     -0.88097815554279     -1.17533807654735
  O   10.11293822997220     -0.00280747805686     -1.24478722651082
  C   9.04712639842615     -1.61499186534437      0.12854342901226
  C   9.07718461732688     -0.65534728254468      1.33572801206773
  N   8.06160958979142     -0.93596757689361      2.32916169451201
  C   6.72140909240457     -0.67877306981284      2.34087041440786
  O   6.03016622528844     -1.07816107590584      3.25667654213764
  C   5.54890107783427     -1.50631041545377     -0.82567943495221
  O   5.53249435794254     -2.37357730587498     -1.64633841475763
  S   4.39494268037286     -1.65766580555345      0.59828587341998
  H   7.41654882292175      1.40802567019416     -0.13148646244060
  H   7.54792946515052      0.76796370437926     -2.47517926179283
  H   6.49734359828832     -0.51332167669522     -3.11039499375750
  H   8.94249718871542     -1.05209363538993     -3.27261342855918
  H   8.04215601049266     -2.24290499851663     -2.29910419041234
  H   9.82610652648293     -2.37720363816917      0.22032090364379
  H   8.09659287642511     -2.14781360035019      0.09781248405194
  H   10.03888927832530     -0.71657579475876      1.84077252153062
  H   9.00239174425309      0.37435577816993      0.99462366623875
  H   8.33160607206893     -1.48855084723564      3.12908552213789
