26
Coordinates from ORCA-job 4868optt
  Br  1.10896263529700      0.01651043055000     -0.46509823034282
  C   2.98255485475025     -0.18733251150983     -0.58995933639640
  C   3.57725356782761     -1.27665791655240     -0.03476646665201
  C   3.06600129816936     -2.39547123561542      0.68779429258505
  C   4.13134457995421     -3.17680267081452      1.03608127132699
  C   5.36858764524053     -2.60726475877618      0.56165397864502
  C   6.73357319210302     -3.17981423483989      0.76007927637243
  C   7.12765210320702     -4.19090696174320     -0.32057100531428
  O   8.45973656820192     -4.60081043306171     -0.01166481786819
  C   9.07284675813793     -5.41243439892250     -0.90889625181831
  N   10.24066051065075     -5.84421934586560     -0.77961576617556
  C   6.21386393087530     -5.33732931068192     -0.36690613884493
  C   5.46816414549549     -6.27270880724861     -0.40037155975409
  C   5.03692007777108     -1.45696236984913     -0.09444421232818
  S   6.03895948038674     -0.31582896530508     -0.88326144591849
  C   4.88276250838461      0.82947731229743     -1.40915131306449
  N   3.60477705706833      0.81854193294731     -1.24834184635587
  H   2.02530607767260     -2.56487117499713      0.90954304258243
  H   4.08173948318054     -4.10095776836936      1.59487440551872
  H   6.79922682036517     -3.68679978803028      1.72431987227076
  H   7.49198483829059     -2.39384459406829      0.75302085618426
  H   7.11907990915221     -3.69563539086828     -1.29798927945840
  H   8.46733058519258     -5.67451630549336     -1.77648929302276
  H   10.65936516953412     -5.51190410631741      0.09010101272597
  H   4.80950455622085     -7.10812816538971     -0.43158783436962
  H   5.32984164686998      1.65967153852518     -1.94635321052723
