26
Coordinates from ORCA-job 4869optt
  Br  1.20341264442609     -0.16274182667962      0.26663730482648
  C   3.05942373355776     -0.00200474282659      0.10089761643418
  C   3.66766238621841      1.19159815396447      0.03395731673067
  C   3.07896525361447      2.56945352287653      0.08520341974321
  C   4.22431337190521      3.46613692436349     -0.40598737750591
  C   5.49780413210662      2.68988064841569     -0.04533054193547
  C   6.04347168270795      3.03429786118132      1.33973587101462
  C   6.74623188690268      4.36313932369397      1.34273245467957
  O   6.94214224564708      5.03386510327688      0.37119439141963
  C   7.21299807941580      4.82122939476401      2.67346024328446
  N   7.55309245028767      5.14754129564750      3.71737182079979
  N   5.03643938196306      1.30474936319192     -0.08219937493593
  C   5.89340540094268      0.21543930773493     -0.10390240426093
  N   7.16310033872540      0.23094719524277     -0.16612945781568
  N   5.22635829492932     -0.99226127407508     -0.05016338415523
  C   3.85981326197640     -1.22886505773114      0.05244759320720
  O   3.42701494993047     -2.35278706092662      0.09380300866191
  H   2.78833635775013      2.79090136623719      1.11569085977791
  H   2.17813349539963      2.63791376344745     -0.52111528956720
  H   4.21441069388981      4.45930219063369      0.03783153070744
  H   4.16956525049109      3.58189807056936     -1.48735896462898
  H   6.27708414813881      2.84181380301689     -0.79184614634049
  H   6.75517041852154      2.27729189595465      1.68847705467738
  H   5.24408426976655      3.05998650040566      2.08818347585577
  H   7.54975053958109      1.16456555867711     -0.23225762063509
  H   5.81681533120420     -1.81229128105643     -0.08533340003931
