21
Coordinates from ORCA-job 4872optt
  Br  1.06407250356303      0.11301136559639      0.12645545187668
  C   2.93726083689170      0.03317563755894     -0.02254467831986
  C   3.63286085563246     -1.11567946843509     -0.04887721047227
  C   3.08156585747743     -2.54046679623477     -0.00646782553492
  C   1.93235373231703     -2.84004713389979     -0.85672599797944
  C   1.00370405568964     -3.17020660536991     -1.53427392680407
  C   4.30534812135478     -3.42065520241094     -0.32341644816722
  C   4.53271903789522     -3.62844809498705     -1.81811499011360
  O   4.17805080581125     -2.83885802182484     -2.64130098189215
  C   5.50684375091791     -2.57358179139617      0.09898107338222
  O   6.57582360077437     -3.00227592450372      0.41397806052477
  C   5.07180329006007     -1.13433665463858      0.01391424629349
  C   5.90011089388614     -0.06452455013999      0.01515548533221
  Br  7.76133866239232     -0.20237115596753      0.11738994449241
  C   5.42273920230087      1.32598044790670     -0.08699175247565
  O   6.11653853634369      2.30012708281817     -0.16217915278986
  S   3.65653916226773      1.59673708245730     -0.05818055158024
  H   2.78589146972323     -2.74852098423208      1.02782015571338
  H   0.17457764501591     -3.44089475579151     -2.14383174989151
  H   4.31529018805426     -4.37655538752577      0.19513196021032
  H   5.10956779163091     -4.53060908897971     -2.08492111180467
