27
Coordinates from ORCA-job 4873optt
  Br  1.06361885230161      0.05391426457280     -0.35815173114612
  C   2.95853924602117     -0.11156778196006     -0.21327894514782
  C   3.54436844849996     -1.37002126265986     -0.01905212425219
  C   2.77247122050471     -2.63450251387466      0.23166167271360
  C   3.06589246264113     -3.78160630423406     -0.73152982348774
  C   2.05567629627383     -4.91586781650398     -0.56958147535059
  C   0.71040362195637     -4.50384836957571     -0.95240032039708
  C   -0.37849523465393     -4.12595208878208     -1.27615721246414
  O   4.33340629413303     -4.36397612347092     -0.47684829084025
  C   5.41524126271333     -3.55812658031513     -0.77063952482675
  O   5.64354013351480     -2.52520575430082      0.17560823417350
  C   4.94312992063602     -1.37168990883608      0.01698572421337
  C   5.65777171833106     -0.18646997682951     -0.06060187192170
  C   4.94054232570333      0.98293878273423     -0.21736674669350
  C   5.62963208592753      2.30423813911904     -0.31327645223333
  O   6.82190002314794      2.42808564369879     -0.27410240941839
  N   3.61148554891305      1.02065422752119     -0.30897133877644
  H   1.70608026636985     -2.42418920209390      0.20205954464156
  H   3.01715551036763     -2.99237359136933      1.23757251169515
  H   3.03675990608176     -3.41644603568412     -1.76609534739268
  H   2.06622997876214     -5.25205755791078      0.47037394265905
  H   2.37952033146756     -5.75668916660874     -1.18489457295505
  H   -1.34894480247757     -3.79860015240773     -1.56395065720702
  H   5.30014848240418     -3.10045136867179     -1.76163211293887
  H   6.30075618160290     -4.18550080226467     -0.72953273163718
  H   6.73753973752840     -0.17599372514356     -0.00741264614792
  H   4.94363018132814      3.16130502585148     -0.42378529486145
