27
Coordinates from ORCA-job 4874optt
  Br  1.11736892651655      0.25421548937870      0.13171569864836
  C   3.00527923005752      0.14962709899294      0.02053345762168
  C   3.64250080703623     -1.08737507956329     -0.03927495012118
  C   2.88094078226627     -2.38738631180482     -0.05470023704810
  C   3.74349128318870     -3.57933031266482     -0.45082636491769
  C   5.06747299306780     -3.55826426035658      0.30058556687026
  C   5.87193827925583     -2.30639435042727     -0.08832656723984
  C   6.46551014879981     -2.52085526703702     -1.46321001935949
  O   5.98744033142665     -2.14058501983702     -2.49726207563449
  C   7.75343837466203     -3.35318629955816     -1.54656385740848
  O   8.27231738058234     -3.85473914350365     -0.59397305109559
  C   5.04215601494222     -1.04495835085354     -0.06380313920391
  N   5.75278009390917      0.07767162186465     -0.06335063142435
  C   5.10978398269903      1.24214830721288     -0.03283532371624
  C   3.72031292908991      1.32937661273787      0.01714696038901
  C   5.89370879036571      2.44676267488312     -0.03738127399008
  C   6.51313224211098      3.47191058634721     -0.03978678575160
  H   2.03228017620597     -2.29197375726000     -0.73357859546487
  H   2.45198119209087     -2.54704390033769      0.94072877582135
  H   3.93328785435764     -3.54766542454038     -1.52698269115315
  H   3.20361845086955     -4.50423860873417     -0.24709188679987
  H   5.65695753353200     -4.45483648543844      0.10419907536537
  H   4.88461748034182     -3.52804409451004      1.37766134104230
  H   6.70690380642300     -2.18023007620610      0.60322930393897
  H   8.14599795019023     -3.45245812532680     -2.57427233626322
  H   3.22870174463474      2.29003845248700      0.05768009269483
  H   7.07608122137736      4.37481402405544     -0.04226048579997
