29
Coordinates from ORCA-job 4876optt
  Br  3.85580181443713     -0.43657904713078     -2.83631271764369
  C   3.03940037065060     -0.11382980000300     -1.17185000051671
  C   2.22461352424252      1.01200052780950     -1.00421486188965
  C   1.94660350029968      2.01998464633373     -2.08522053317255
  C   0.98210875530606      3.12217460780253     -1.64471786294171
  C   1.46536522072674      4.01252667680115     -0.47589844526053
  C   0.72896950037773      3.82030808289814      0.87055195471451
  C   1.58404292757453      3.24822830948968      2.01020690982075
  O   0.94904663331950      2.15723502321716      2.70459467217789
  C   1.26830062899089      0.87181005115686      2.51971187995925
  O   1.01443503672607      0.05188053412773      3.35495182611049
  C   1.91091558246382      0.47585751513710      1.21456364446545
  C   2.67621992945377     -0.67005620891056      1.13225752824658
  C   3.25870897157187     -0.98198873625798     -0.09915670579497
  C   4.06199096341323     -2.15587562546858     -0.22268849038640
  C   4.72862222210600     -3.14843722032206     -0.29482181050008
  N   1.67729901235082      1.26001798106837      0.17332540981585
  H   1.55409883004666      1.50401149698410     -2.96567728910714
  H   2.90112455744535      2.45254954545715     -2.40455771129112
  H   0.02554385410613      2.66712301621003     -1.38046209780322
  H   0.79525347949537      3.74522001503206     -2.52078834112514
  H   1.36158042205098      5.05509895210541     -0.77896770895388
  H   2.53889364178759      3.85958130022864     -0.32928299571694
  H   -0.11710582608180      3.14860052833715      0.73356606494013
  H   0.31665686180185      4.77579503374270      1.19804570446636
  H   1.73691289913791      3.99021976134676      2.79303107268543
  H   2.56401411648665      2.93441972669891      1.65466205589859
  H   2.81888499261752     -1.30454435695895      1.99509617448953
  H   5.32169757709478     -4.02933233693297     -0.36494732568710
