30
Coordinates from ORCA-job 4877optt
  Br  2.60637834045127      0.56733505817478      3.10167004691276
  C   2.83982040262507      0.76722054331931      1.24055696868005
  C   3.44785046791794      1.84940214937984      0.72175343556322
  C   3.67075777776481      3.15263667791623      1.42297972956665
  C   2.32729465675955      3.92296046977153      1.52808682518846
  C   1.44550012751526      3.88719803812545      0.26162436149661
  C   0.41609532470416      2.73794320084078      0.25551267493457
  C   0.10987374397366      2.18719059686930     -1.13270840207921
  O   -0.72507682238442      1.02893455565396     -1.03713519625215
  C   -0.33944736688903     -0.24540643900713     -1.20949212123549
  O   -1.13681721362484     -1.12112851356301     -1.06501624413690
  C   1.09483635564955     -0.57630721213790     -1.65346944782126
  C   2.14047713395463      0.02027988869008     -0.76648975895762
  O   2.98433321487549      0.84123826941216     -1.41586973164593
  C   3.70250058725876      1.80883238058119     -0.71660301316357
  N   4.48211673231684      2.58213761958339     -1.32949951324347
  N   2.13898687297036     -0.15359557534639      0.49175986374005
  H   4.38911124850296      3.73333895757945      0.84753194579127
  H   4.07859786231917      2.99495678603346      2.42083367599175
  H   2.56673988620340      4.95647511675191      1.78120256201846
  H   1.75292949280254      3.52149278222986      2.36670225989061
  H   2.08654827371914      3.83564691757356     -0.62346090695676
  H   0.91139566822804      4.83452370760103      0.17670199405452
  H   -0.52097139133954      3.07568795461644      0.70203064640915
  H   0.75401527786345      1.91318856923635      0.87899004297481
  H   1.01685323553628      1.97348128872836     -1.69749298922000
  H   -0.46329128283283      2.90767876593209     -1.71753569369042
  H   1.25044174503211     -0.23853100209631     -2.67813118198315
  H   1.14996975704335     -1.66197492978591     -1.62489835755754
  H   4.50417989108283      2.38216337733610     -2.32713447526948
