27
Coordinates from ORCA-job 4880optt
  Br  2.68457144275322     -2.54085180250382     -0.55769384311035
  C   3.07926713319220     -0.74377022802213     -0.23471340192882
  C   2.27670803694907      0.28484750638456     -0.53313631745213
  C   0.88630636512151      0.25040854156522     -1.10106799146240
  C   0.03752709915671      1.41147703628599     -0.55471117860490
  C   0.37173910280599      2.80110017273555     -1.14252506207309
  C   0.62002322261997      3.89739752215857     -0.08363928982835
  C   1.70567166349292      3.56322000625877      0.90801366906853
  O   1.49867031239827      3.05928204673531      1.97986854480369
  C   3.15368887579535      4.02817896703615      0.62557340202108
  O   3.40535994667161      5.19251209555082      0.47228688947710
  N   4.13986912575700      3.05171977732342      0.71733702257765
  C   3.84043394738625      1.74503865982958      0.37154574294314
  N   2.75965977938733      1.55011338415455     -0.26540200062829
  C   4.73419457031391      0.64057860333494      0.77703729923962
  N   5.81012960901244      0.66998404686272      1.42320819851274
  O   4.29505986067246     -0.58020681516821      0.33422788690391
  H   0.42270626256680     -0.70399508503989     -0.85217623884534
  H   0.92981347449201      0.30407382993240     -2.19374946564082
  H   0.14272134813592      1.43222460380414      0.53301464585843
  H   -1.00988410665106      1.18169141807599     -0.75326754465281
  H   -0.45913863879405      3.14769336640975     -1.75937999657848
  H   1.23807350215172      2.73830803406232     -1.79829898845921
  H   -0.28714846306048      4.04326032988320      0.50470693240155
  H   0.87096734904437      4.83649056960508     -0.57972506184597
  H   5.09543228488191      3.38090843209855      0.72824123398305
  H   6.04557689374662      1.61031498064643      1.72442491332047
