23
Coordinates from ORCA-job 4881optt
  Br  1.36128865955670      0.44324453976652      0.73421981757632
  C   3.13151901987621      0.08174426677810      0.26854723684480
  C   3.64965246605038     -1.15753098224003      0.15810453017090
  C   3.26173743371444     -2.54115467204589      0.29324225605601
  C   4.36222067979027     -3.25440464803158      0.01512144020971
  C   4.66027315227615     -4.70842936078151     -0.00288793048829
  C   5.33234884727158     -5.17579352135668      1.28768063045449
  C   4.35860133329697     -5.25900893006419      2.43060433279182
  O   3.17572427453508     -5.06423129115881      2.33864230208069
  C   4.92224158393165     -5.64591436516212      3.80164965235024
  O   6.08841497606835     -5.83429002400186      3.98164780142078
  O   5.45161940383282     -2.43751044043766     -0.28794834282103
  C   5.03505565354657     -1.16591640491856     -0.20506007356846
  N   5.81635095365923     -0.17188818757578     -0.42984561372760
  C   5.27513012917638      1.07368632928407     -0.31033316176638
  O   5.80581912987347      2.11958674789206     -0.46255383716366
  O   3.86830518852810      1.14804554863209      0.04966469281461
  H   2.30331720430346     -2.94059023362920      0.57700433390166
  H   5.31293559747932     -4.91723990709877     -0.85113630515422
  H   3.72701909115970     -5.25161886090587     -0.14479155933206
  H   6.16367240923468     -4.52915545616062      1.58135037803182
  H   5.77442521328216     -6.16959118431359      1.16758199738203
  H   4.15832759955622     -5.73903896247006      4.59349542193581
