24
Coordinates from ORCA-job 4882optt
  Br  1.04668273880659      0.13183588693675      0.22636738425347
  C   2.89316378807696     -0.00270274548842      0.02949575833702
  C   3.54044171714451     -1.17981629227473     -0.06692081806199
  C   2.94010135368272     -2.49416567491003     -0.03696103068163
  C   3.68587248310864     -3.59714583257947     -0.16358630369516
  C   3.13957730729681     -4.99293921141083     -0.14280297523618
  C   3.44930875258501     -5.71322352493616      1.16783194053271
  C   2.65572614498760     -5.18311256629230      2.33011450158276
  O   1.80528345611876     -4.34066931805216      2.23277752570388
  C   5.15567585155234     -3.48986859061030     -0.31689771663074
  O   5.87832334867464     -4.43235922083852     -0.43252306806423
  O   5.71727626839295     -2.24427981005349     -0.31447775848867
  C   4.98516199118874     -1.10460410366359     -0.21343294932394
  N   5.68225208136588     -0.04319213178361     -0.25677413607697
  O   5.00462118255807      1.14646542486006     -0.16066612321441
  C   3.64267557843735      1.25585399975505     -0.01649006004048
  N   3.09704134221201      2.38513842350721      0.06876054188806
  H   1.87011697439347     -2.57049599932822      0.10509477667588
  H   3.58566430032825     -5.55353271406357     -0.96458172859816
  H   2.06071860121603     -4.95339409738762     -0.28817751898518
  H   4.51416696629436     -5.66155910245100      1.41322514500088
  H   3.22200019578045     -6.78149586417850      1.08630182374560
  H   2.89117680361127     -5.62867683705032      3.31476124235685
  H   3.78797077218656      3.13193990229381      0.01956154702063
