27
Coordinates from ORCA-job 4883optt
  Br  1.30453315054306      0.02379819911108      0.63552597079301
  C   3.10630540672609      0.00945158816998      0.06006614416998
  C   3.75022187437399      1.17534667092968     -0.34374680206347
  C   5.11317740370488      1.12439266817172     -0.68206993635799
  C   5.91494562041161      2.33594889490257     -1.12943121781740
  C   6.72464079071494      3.08878501273050     -0.02990857044581
  C   5.90903499494610      4.02250699915065      0.90844362802945
  C   4.61422919092081      3.31583509288885      1.22643634464180
  O   4.49547869632809      2.51344225137480      2.10714473323640
  N   3.61047999597567      3.53531383897536      0.27366179735913
  C   3.02370485326059      2.47606243047454     -0.44659260365642
  N   2.05096208199857      2.60709378566333     -1.23875216242186
  C   7.52153742274566      2.14279353857369      0.75725049136495
  N   8.17903197082020      1.41468141680743      1.34881294137533
  C   5.77203986639851     -0.09905755103969     -0.63915364825150
  C   5.11437590109908     -1.25275778190190     -0.24552925443655
  C   3.77931737259226     -1.20164074354895      0.11206224439123
  H   5.28718592328831      3.06068748003734     -1.64934207668311
  H   6.64732725015107      1.98544090123532     -1.85688188150458
  H   7.44904169023442      3.71785903098852     -0.55146625895251
  H   5.72590142075885      4.96270956258562      0.38755670295553
  H   6.46863679798149      4.21914489581854      1.81957985190895
  H   3.64294586125206      4.41151656661023     -0.22637558077889
  H   1.65143276409711      3.54502712322112     -1.20392903989123
  H   6.81939060366354     -0.14468020405930     -0.91093547231747
  H   5.64636072408950     -2.19412689271406     -0.21049386820441
  H   3.25576037092348     -2.08957477515696      0.43706752355743
