26
Coordinates from ORCA-job 4884optt
  Br  1.77418670980029     -1.22156058833685      1.62320097980746
  C   2.69140653044382     -0.05442088272858      0.47049681262398
  C   2.51279533931942      1.28988658076144      0.47729854971770
  C   1.58790355131784      2.05160919829167      1.31730399171938
  C   0.25778684630986      1.91107167521657      1.42824457699097
  C   -0.38884241599337      3.23126183964502      1.48974776369474
  C   -0.94564909146560      3.65360200718875      0.34113561084254
  C   -0.05754301401782      4.73251591663291     -0.21781919303725
  O   0.01430059734511      5.89864711485154      0.03283155180913
  N   0.94285136130279      4.02834652243395     -0.94452479449905
  C   2.28729651878148      4.36500911963355     -0.79699086745820
  C   3.30622152965654      3.51196302698817     -0.62110134924797
  C   3.33808963820541      2.02440192165682     -0.49453366686394
  N   4.20804665353654      1.44869893966130     -1.26162643709979
  C   4.38581128747995      0.07498365534304     -1.24435620515151
  N   5.20073169539971     -0.58685031982831     -1.95466458367811
  N   3.56636438558485     -0.64716291312523     -0.36156038980973
  H   2.00217698470648      3.00315097704373      1.63924319622375
  H   -0.27238597175909      1.05390111875937      1.02803616504859
  H   0.09229212462486      3.96829486959849      2.12691473207631
  H   -1.28493562676577      2.90784939816899     -0.37262768669049
  H   0.78587123552217      3.03114562299209     -0.98749495059302
  H   2.47850899135628      5.42890682070615     -0.85292339019371
  H   4.29865634806505      3.94114113984323     -0.67144473034523
  H   5.71991369856007      0.05080732148319     -2.55078754036996
  H   3.69814409268310     -1.64820008288101     -0.35199814551657
