26
Coordinates from ORCA-job 4886optt
  Br  1.50150319957337     -1.50661192255592      1.23049533821288
  C   2.62345571669042     -0.30286649172361      0.32205860653152
  C   2.43522643002976      1.03491279257780      0.36791409343098
  C   1.43116225217001      1.78139607527093      1.14975976817612
  C   0.16764043533148      2.04099287457835      0.78235784060457
  C   -0.20138941536537      3.44068743777602      0.97723072857413
  C   -0.51959338847441      4.17484412924160     -0.09633109974249
  C   0.34766099558979      5.37538176758740     -0.42755328891214
  O   -0.02270488764473      6.46576109776482     -0.74809753086232
  N   1.72663665938348      5.02159224182870     -0.32803461921021
  C   2.05924194622463      3.83646430255051     -0.66325661823008
  N   3.26629251465689      3.25609262130445     -0.41445123576692
  C   3.40993005286654      1.83665391386361     -0.38340814032291
  C   4.45095086434690      1.26383874271630     -1.02179805075264
  C   4.65313984886071     -0.17376111186584     -1.02522457744798
  N   5.57971959564724     -0.85478114308827     -1.57492022573905
  N   3.64844501284637     -0.87769142692564     -0.35473551317771
  H   1.87465490078543      2.46582116724736      1.86963377779231
  H   -0.32085703921758      1.46691089146483      0.00088314601097
  H   0.32151987227678      3.93578924736047      1.78989887177736
  H   -1.00310807519640      3.71675612571858     -0.95562336315563
  H   1.39454896621919      3.15476598149090     -1.19282050789999
  H   3.98203282607667      3.82580130267177      0.01518081511562
  H   5.14368457288046      1.87139369194673     -1.58807205438388
  H   6.24674059787759     -0.25219355365736     -2.04552133554046
  H   3.73846554556471     -1.88395075514453     -0.37456482508204
