22
Coordinates from ORCA-job 4892optt
  Br  1.29694909225786      0.46612919811856      0.30960797589952
  C   3.13536136193651      0.16162534928522      0.15877995725480
  C   3.73845062587477     -1.04917638467374      0.09781162702684
  C   3.24067167338383     -2.41989098122287      0.09848298676279
  C   1.79590522079313     -2.84615999362232      0.09401312103066
  C   1.15186413528334     -2.58152710522467     -1.19282572205047
  C   0.65170307766739     -2.37227318385245     -2.25985712233187
  C   4.24788956350883     -3.30348022233519      0.04914353494290
  S   5.85233023050555     -2.61695957659253     -0.00945928743608
  C   5.18215275048125     -1.02132183873284      0.02603275035269
  C   5.88016995192021      0.13351502293520     -0.00141547228837
  O   7.25289813027070      0.14521096780608     -0.01565449988347
  C   7.83885014755779      0.64244186164514     -1.14097074680532
  O   7.26288428806830      0.92553882298885     -2.13659650431262
  C   5.20754065999780      1.40694553371860      0.05575377840077
  O   5.69532080074935      2.49371062608217      0.05741981194580
  O   3.81146680344916      1.30320681303929      0.13484729601705
  H   1.24239499714582     -2.34481045692398      0.88956690169146
  H   1.75205198298913     -3.91696137054380      0.29979697535055
  H   0.20753458758544     -2.18331525202495     -3.20798038011695
  H   4.14446221629560     -4.37793912140864      0.02663154351665
  H   8.91714770227819      0.71349129153889     -0.97012852496732
