27
Coordinates from ORCA-job 4895optt
  Br  3.10098569635359     -1.38877296135310     -1.93724697278464
  C   3.31638347200463      0.05041438857516     -0.72407619710343
  C   3.07376470086661      1.32827227555196     -1.07548623083233
  C   2.38811592913740      1.83686311364671     -2.31491236257181
  C   1.01811706366371      2.19182322106186     -1.79769199065883
  C   0.75774481613344      3.36334016338432     -1.23952197271800
  C   -0.37385321405596      3.63105198920476     -0.29727830690049
  C   0.17800836412485      3.85399645426836      1.11629639029606
  S   0.45112755706167      2.39310620513148      2.10054912354108
  O   1.04197097633449      2.84150273988898      3.32363779263305
  O   -0.74485684313386      1.60420710766366      2.10986297067250
  N   1.52978035694117      1.45937027570780      1.23967770054240
  C   2.91041680214955      1.81441500341959      1.22752517048424
  C   3.49200502175182      2.17760818491305      0.07099501499965
  C   3.82464293083514      0.93186418281054      2.02327052272260
  O   4.43961472556384      0.96546522998561      3.02222399655384
  S   3.89196174056779     -0.57941680568882      0.86567609566501
  H   2.36383140122322      1.08227653851910     -3.09738566179945
  H   2.90658819611787      2.72273282709006     -2.68527117711371
  H   0.32651202750424      1.36428112519199     -1.66669918709317
  H   1.49124975835352      4.16281602157002     -1.33594959736986
  H   -1.08501227989099      2.80342108820131     -0.28738167929786
  H   -0.91963973015522      4.53357597118719     -0.57980212311363
  H   1.12157835791674      4.40228089397250      1.11391319366068
  H   -0.52380753533915      4.40076723906491      1.74941433945690
  H   1.29486351734860      0.47822157570735      1.37216232547632
  H   4.54090619062127      2.46451595132363      0.09149882265292
