23
Coordinates from ORCA-job 4906optt
  Br  1.09497576406882      1.40825016767333      1.63389124028601
  C   2.70028097628903      0.75557329720667      0.88973090831439
  C   2.86195130831384     -0.53951280974188      0.44812188580860
  C   1.74839688264999     -1.49266697329917      0.51039237830080
  C   1.64541616656220     -2.68867145229574     -0.12561423711213
  C   2.83519928496507     -2.94000523866623     -0.96373475350337
  C   3.98608090199079     -3.02441618933436     -0.29068247005827
  N   4.82983853983144     -1.90109964149253     -0.47991443640216
  C   6.14662092782917     -1.60371547089589     -0.70519679382741
  N   6.40316400378752     -0.34097314807923     -0.50215069469838
  C   5.21760231723612      0.20539221208214     -0.08961852869787
  C   4.21759084194908     -0.73531723660730     -0.06428304939471
  C   4.98083752395705      1.56109795073658      0.34777837048408
  N   5.73917641661144      2.57408534595655      0.38832337229250
  N   3.65918991878171      1.70637354998676      0.82501686015910
  C   0.44014456945641     -3.45120774200726     -0.11817088687291
  N   -0.51574846051707     -4.08866528693659     -0.11818390600378
  H   0.88018055072611     -1.14645373122114      1.05762560663401
  H   2.84233924914558     -2.45389589392237     -1.93543486703489
  H   4.07296881786479     -3.51137448371479      0.67383060090413
  H   6.84981836850566     -2.34924193683825     -1.03983695786617
  H   6.65734986817791      2.33437079212887      0.02220231882928
  H   3.44662526181732      2.63507391928182      1.16390803945913
