25
Coordinates from ORCA-job 4907optt
  Br  1.16368289808151      0.31087565090450      0.14097900697954
  C   3.02345802900284      0.09313491211265      0.03532219106979
  C   3.62171264030754     -1.11394237110782     -0.02521886481345
  C   2.84184817545292     -2.40656653775002     -0.00925506389672
  C   3.69039967451531     -3.61358230547322     -0.39407415321779
  C   5.02293023055847     -3.58445312530025      0.34065601356776
  C   5.84596479253531     -2.37378250254271     -0.09004442188043
  N   6.36636641328331     -2.58437349342285     -1.44776929883556
  N   5.77688706745239     -2.21138924729824     -2.55568386011662
  N   6.52529863289594     -2.65918574984536     -3.50336040907135
  N   7.56101462482695     -3.30347961545296     -2.96815661770053
  N   7.46216992074004     -3.26082718245268     -1.68575191279026
  C   5.06248734489734     -1.07440350021972     -0.04652007360158
  C   5.73743756503879      0.09273198624354     -0.01449629406475
  C   5.05201116293315      1.36563920681360      0.02021755829612
  O   5.52608550594219      2.45787219702661      0.03492990955670
  O   3.65572034549696      1.26119392807711      0.04704522997583
  H   1.98570388712574     -2.31956827991835     -0.67802629662296
  H   2.43371978486642     -2.55518425639875      0.99587452916640
  H   3.86372847603829     -3.61958838208203     -1.47259420011733
  H   3.15014792239245     -4.52892165835644     -0.15498703527686
  H   5.60845539074603     -4.48665421639841      0.16157524766850
  H   4.85771221748703     -3.50753671150217      1.41868826474348
  H   6.73687716120024     -2.27782573290960      0.52891269464400
  H   6.81818013618273      0.13681698725361     -0.02526214366193
