22
Coordinates from ORCA-job 4914optt
  Br  0.99741916449918     -0.24192694184300      0.03553056667512
  C   2.87166857023939     -0.15915817822558      0.08071256530701
  C   3.65469815559461     -1.27094947262940      0.03443378607618
  C   3.30620583153198     -2.64955156304383      0.01996311969460
  C   4.47120520239374     -3.36150359965122      0.10369259975162
  C   5.59141882544734     -2.46878674690346      0.15214645067065
  C   6.92154071327511     -2.94499664909847      0.32454054103343
  N   7.95717106879271     -3.41081754645783      0.49986507018731
  C   5.11704096368015     -1.16757953450314      0.09240905000611
  C   5.76672353985658      0.10244173016411      0.10625222133691
  N   5.13459145888781      1.24039922821215      0.18616448505686
  S   3.52144979921476      1.40119123485496      0.21280622746337
  C   7.23424407041606      0.19498716584297      0.02844522294885
  N   7.89210105369007     -0.55237019582633     -0.84467038531347
  N   9.16595090550025     -0.23809752018598     -0.66202805656836
  C   9.35343208476750      0.68883164337121      0.30296086810067
  C   8.10703434091614      1.01242073646659      0.77598166089814
  H   2.30203527726835     -3.03853966412199     -0.02059757055760
  H   4.56343991010247     -4.43628200496660      0.14263329092750
  H   9.86645881499412     -0.71725690644920     -1.20247335415252
  H   10.33664099627577      1.03400600440334      0.57250061965437
  H   7.85252925265577      1.71653878059074      1.54773102080323
