23
Coordinates from ORCA-job 4915optt
  Br  1.08859932101137     -0.30301971918482     -0.09711917741437
  C   2.92385740753215      0.02759578850175     -0.03406784406445
  C   3.52655835271938      1.24322512862333      0.01879880766549
  C   4.98763168740305      1.25251609374519      0.06472885075325
  C   5.40485175984227      2.55677324457404      0.12340898847751
  C   4.24124363145823      3.37667343633726      0.11746452726447
  C   4.31848742462668      4.80213789777834      0.15731176612659
  N   4.48911674293210      5.93608088111421      0.19426281374276
  C   3.08407637985516      2.61078133621283      0.05323591060313
  C   1.72507832415697      3.15793810316189      0.02135458950026
  O   1.48863527270869      4.33506875577608      0.12999267353086
  C   5.69642179793842      0.01838035141322      0.04818701438469
  C   7.19061415097991     -0.01200798115705      0.06035093149048
  C   7.80534423020076      0.42856584819020     -1.25498816745545
  O   7.17829802374247      0.67208861289884     -2.24284091541961
  C   4.96777119202366     -1.10877566736157     -0.00566018277651
  O   3.61031549487583     -1.10523391852849     -0.04357171348679
  H   6.41821446004018      2.92462726028945      0.14801639428850
  H   0.90807997883082      2.43444253849231     -0.11575122502080
  H   7.57310368474795     -1.01374059922565      0.27745678069463
  H   7.58506060641175      0.63990175254165      0.84668564437502
  H   8.90901649840340      0.50390775877052     -1.24547213448296
  H   5.35362357755871     -2.11592690296353     -0.02578433277670
