27
Coordinates from ORCA-job 4916optt
  Br  0.96123438851801     -0.42149313879561     -0.14201866972843
  C   2.83886791794439     -0.26677568083048      0.05229178114428
  C   3.62158984610511     -1.35163887973253      0.30564591955851
  C   3.02888212658191     -2.71263974107082      0.53947438287075
  C   3.26658605329093     -3.66777015392196     -0.65567580473962
  C   4.61618084170527     -4.38443151549986     -0.53401702714142
  C   5.83565015338188     -3.47008109530547     -0.49184633027292
  N   5.80454626466530     -2.45919734415748      0.56469136841061
  C   5.06833342746921     -1.26252755522474      0.34439855667662
  C   5.72488766037139     -0.09184016377701      0.22418606443634
  S   5.01176157591026      1.44965672022414      0.05112338622726
  C   3.27730334538123      1.12603814714227     -0.09601068648282
  O   2.55407477235694      2.07012532453675     -0.28666147234508
  C   6.19305215980735     -2.90822881266946     -1.86400329497117
  O   6.83171900153679     -1.90720430116710     -2.01532497419204
  C   2.20259612176242     -4.66774010851125     -0.73620679915763
  C   1.34684825524115     -5.50369654353528     -0.79025489365749
  H   1.96511184709875     -2.62908459557633      0.72635178621714
  H   3.49828588791187     -3.14711092203901      1.42444270822750
  H   3.23918973910078     -3.07876252450090     -1.58015614494337
  H   4.73257414545066     -5.08022776333033     -1.36842133436165
  H   4.59705783384333     -4.98242300451131      0.37850687631819
  H   6.68591691862109     -4.12171517523054     -0.25595582111143
  H   6.74813430442690     -2.22407980692002      0.83832989530218
  H   6.80726945675474     -0.07178854917852      0.20582115726032
  H   5.86417057163364     -3.51106326192224     -2.73467439979575
  H   0.58017538312862     -6.23929955449488     -0.84303622974888
