22
Coordinates from ORCA-job 4918optt
  Br  2.18462225170157     -1.01544949655437      2.93422407862279
  C   2.86905701934464     -0.24141449234160      1.37204681747221
  C   2.67583461475661      1.04750117707441      1.07285184681318
  C   1.90210166910609      2.12506145978716      1.64589688274379
  C   0.64252950385870      2.29059670283299      1.17463148775673
  C   0.56658768400049      3.43815362949839      0.31659448884035
  C   1.67659466411379      3.62020088659382     -0.48427464764244
  N   2.66129148036552      2.68433961548994     -0.80606223592685
  C   3.07846490269662      1.59020890554394     -0.28242193060306
  N   3.89873786824590      0.80867201774887     -1.09887395148035
  C   4.13442667423511     -0.40025315657507     -0.78543957237132
  C   5.05512830025545     -1.20885430961250     -1.68450249781832
  O   5.62132453855666     -0.71322983404937     -2.61216145656292
  C   3.59208019774244     -1.10588561120276      0.43031430205764
  O   3.78652551941309     -2.28540926305236      0.59764110178152
  C   1.74273141139880      4.79492890915266     -1.30902270725653
  C   1.78729779176663      5.79482084379515     -1.96772894137000
  H   2.47933689941508      3.03941485068966      1.75610812631385
  H   -0.07168076150695      1.47559586021178      1.09965002234840
  H   -0.31617121949909      4.03746227548904      0.13064261534257
  H   5.16264127394384     -2.26971064700271     -1.41818182485295
  H   1.83253771608898      6.67524967648292     -2.56393200420829
