22
Coordinates from ORCA-job 4920optt
  Br  1.23559928537594      0.03008781846831     -0.16938905924007
  C   3.11537413025005      0.04307830376169      0.00332586495581
  C   3.75948885784695     -1.16484033792845     -0.02890874398563
  C   3.26605318869327     -2.49638920713979     -0.17135437324147
  C   4.33425491960770     -3.34779275403947     -0.13688415034577
  C   5.55146396341899     -2.60360948775499      0.02779574124593
  C   6.86890385826782     -3.12044705719864      0.11023869493616
  N   7.94647646475519     -3.51435799375159      0.18216549649405
  C   5.21267630698592     -1.27072704519379      0.09497575332837
  S   6.23123939654985      0.07101245633400      0.29046579438918
  C   5.13859374799141      1.35594749876960      0.29081913174793
  C   3.78280268839596      1.29051021136195      0.16325281205988
  C   2.97568083348425      2.59311651815950      0.17202921909669
  C   3.70372773704280      3.74302618282067      0.71150164773613
  C   4.28110104784547      4.68951186935229      1.15701231726176
  C   2.49389265640879      2.90195784349317     -1.18786456494655
  N   2.12893400616056      3.13361492893104     -2.24767640988485
  H   2.22894857098843     -2.76231068390512     -0.28820733164440
  H   4.29693317811560     -4.42318685869636     -0.22089263255356
  H   5.62081628930158      2.31778674140883      0.41306820967361
  H   2.08719193826669      2.43966039836423      0.79136511869453
  H   4.78584693424671      5.53835065438290      1.55516146422228
