23
Coordinates from ORCA-job 4926optt
  Br  1.07363794176070      0.23968797548770      0.18845166598314
  C   2.94977473373628      0.08875275096061      0.07324187601465
  C   3.51702365359355     -1.13600267966276     -0.04854090207053
  C   2.90575474360989     -2.49374719982111     -0.17224215731148
  C   3.84601231245450     -3.58832211122518      0.36984557096005
  C   5.25891821960310     -3.55225335732449     -0.26444528204861
  C   5.20951316512227     -4.08200789385528     -1.63445906324407
  N   5.10491091732899     -4.51927775221184     -2.68806907409370
  C   5.76850365243581     -2.14636740548892     -0.22530015350864
  N   6.98970951144150     -1.66821928663645     -0.23258645135226
  N   6.93248996898650     -0.32255345828250     -0.14778198037047
  C   5.65729199487746      0.01025125482167     -0.08300059181074
  C   4.94399072246065      1.23561716422057      0.03270463406869
  N   3.64949432080980      1.25431732044700      0.11059888176637
  N   4.88642337350394     -1.12371511761375     -0.12797779176190
  C   2.48343683431770     -2.76650699391093     -1.62115521836261
  O   2.49566112831540     -1.93899903117515     -2.47918775151769
  H   1.97742432811685     -2.52439318270528      0.40686484862845
  H   3.40081573183891     -4.56876771283100      0.20085734142217
  H   3.95746502368551     -3.45646128934156      1.44617119339505
  H   5.93564358869197     -4.18833278096735      0.30807944173650
  H   5.48415657229130      2.17418466147138      0.05930492194013
  H   2.13994756101737     -3.80088387435536     -1.81037395846248
