18
Coordinates from ORCA-job 492optt
  C   0.98466668898248      0.07281306301128      0.15888955280796
  N   2.43044019471615     -0.05328522861346      0.13834690753045
  C   3.09348655784449      1.22639029765947     -0.06589196799626
  C   4.58545840696668      1.06963015585549     -0.19758905548093
  C   5.19477089554071      1.33642668878615     -1.35367012270564
  C   5.36801095221323      0.63745640795960      0.96721520537350
  C   4.86593484813749      0.30887985625973      2.15329548453207
  H   0.52959661095259     -0.91209025664664      0.25631241998886
  H   0.57443411958308      0.56251191061539     -0.73632825401092
  H   0.68831961976073      0.66536850875518      1.02697421540927
  H   2.72008062274413     -0.69968268504255     -0.58606193016422
  H   2.86725571813794      1.85727967210151      0.80084081589453
  H   2.71125200261443      1.75296740974295     -0.95293199067489
  H   4.63904018105883      1.66968807037144     -2.22143835560742
  H   6.26769147273033      1.23205395810192     -1.46057120464970
  H   6.44275774525510      0.60091186413288      0.81485066465925
  H   3.79841187865504      0.29726042126711      2.33170052589621
  H   5.51439148410654      0.01741988568251      2.96905708919788
