31
Coordinates from ORCA-job 4939optt
  Br  1.35398602140344      0.77331416157343     -2.55972371656378
  C   1.95289422499216      0.83921852836787     -0.77472119517362
  C   2.88498060569466      1.74656647389760     -0.36707074059811
  C   3.39660435840080      2.88545007790570     -1.18928119977755
  C   2.30070873772781      3.94126207749852     -1.44926541485624
  C   1.58070406116367      4.52868527399079     -0.21828781143520
  C   0.11365549250316      4.10296394612675     -0.08857588932105
  N   -0.01484412748007      2.74039308385176      0.40221325085667
  C   -1.25344360292315      2.05117634253630      0.07841372822858
  C   -1.26521744646811      0.61258194002522      0.61811684295453
  C   -0.20029972955522     -0.27170808542709      0.00132284663404
  O   -0.43074488552205     -1.26074521896476     -0.63527614736364
  C   1.21591204709489      0.21418547322098      0.26535133023461
  N   1.56029959800176      0.20110612352045      1.51545898926816
  C   2.72129301826799      0.83408916162104      1.90288779617241
  O   3.24030597392347      0.75672130012076      2.98812568257793
  N   3.24406813819646      1.71342081615470      0.93652014175412
  H   3.75753797032156      2.50879042226661     -2.14723220214962
  H   4.24352448253104      3.34635174576165     -0.67617564145361
  H   1.55912336962075      3.50474856896744     -2.11791507204916
  H   2.78073792076369      4.74473442820558     -2.01006736999573
  H   1.60881660610633      5.61809337711547     -0.27972206075196
  H   2.10384073507433      4.26712426330307      0.70719378340411
  H   -0.35422410138897      4.14594544212570     -1.07622023019765
  H   -0.42422324838933      4.82358194980951      0.54220583115767
  H   0.16297496872916      2.70072633066133      1.40051647617263
  H   -2.14562334150297      2.56320506589854      0.46604044858547
  H   -1.34581384390383      2.02934188123765     -1.01144285357647
  H   -1.09329167936706      0.62959989807287      1.69850244146993
  H   -2.23034735436695      0.14787542646531      0.42236656296088
  H   3.96210503035056      2.33919972408922      1.27474139283164
