24
Coordinates from ORCA-job 4943optt
  Br  1.44647082623411     -0.34004953953779     -0.11579652168158
  C   3.28674319173926     -0.02281101118514     -0.18078622624337
  C   3.80140766513726      1.19664509496704      0.02253131138108
  C   3.13030005967944      2.49754073025770      0.33658596345021
  C   4.21496670910893      3.53873596240659      0.02010834204227
  C   4.05977928814369      4.85229524767769      0.78258775802726
  C   2.77575611365745      5.46939630207350      0.45465696096369
  N   1.75595769567505      5.90665864899291      0.17133057924101
  C   5.53344941183393      2.78176608987153      0.30559233143190
  C   5.93302328459020      2.88973563187626      1.72164113025438
  N   6.18259613978697      3.01791349138709      2.83183356800980
  N   5.16385959733807      1.41741845706443     -0.02990650301248
  C   6.10673776038631      0.43154858993741     -0.25767247296989
  O   7.29120563655709      0.65436976551186     -0.26280641192167
  N   5.53787140182657     -0.79983590579407     -0.48189425531737
  C   4.18038155012214     -1.15319074493229     -0.46061314600665
  O   3.84129732704810     -2.28850513987707     -0.66027945187874
  H   2.86452947208335      2.51588980594159      1.39921981843750
  H   2.21536196103519      2.64021453723215     -0.23458327119781
  H   4.20244380849870      3.74173578015221     -1.05216035239426
  H   4.86146358429430      5.54970018957779      0.53317059180616
  H   4.09940998148154      4.67742678749196      1.86011030006662
  H   6.36744450900181      3.10844267004632     -0.31450728150024
  H   6.18454302474052     -1.55704144113973     -0.66236276098784
