25
Coordinates from ORCA-job 4945optt
  Br  1.67689333919552     -1.47429194365019     -2.11308267614285
  C   2.49517316008252     -0.31200700119590     -0.89738522402254
  C   2.99286008291187      0.89361529929336     -1.25139471713252
  C   2.68547362413097      1.84174545088062     -2.36008708102330
  C   1.43918623079454      2.34281604644765     -2.19278920151615
  C   1.33330239889800      3.69032583977176     -1.63126812154325
  C   0.49803045307024      3.81175332384113     -0.58882629573261
  N   0.85407105247520      4.48574298742164      0.64691611200136
  C   1.36097996738929      3.41316250009118      1.46030703387357
  C   0.35542562093210      2.63405020746396      2.20954649230564
  O   -0.81321479289795      2.92844039740938      2.20805483710079
  C   2.65410412389192      3.04702163174223      1.30323532047615
  C   3.02860468154366      1.66665617702879      0.89601372901591
  N   2.52072925767698      0.49977142280604      1.35884757320357
  C   2.38279413568035     -0.64635426890083      0.52886439958481
  O   2.07815221810699     -1.70383363845420      1.01005868772572
  N   3.52134489806740      1.75345881570438     -0.29338758981149
  H   3.49649619624555      2.53225028873551     -2.55561466681352
  H   0.64387203668093      1.65772832342764     -1.91292280646796
  H   2.19519504597733      4.34276707591389     -1.71007996623276
  H   -0.36185029968884      3.14740439213316     -0.51078126648275
  H   0.00847810739990      4.84327955454050      1.08466474267292
  H   0.72364900595328      1.80109019234912      2.83056058118976
  H   3.30311892892767      3.76821438632509      0.82485399087797
  H   2.22613052655453      0.37719253887405      2.31669611289356
