23
Coordinates from ORCA-job 4947optt
  Br  3.13184418727430     -0.22641306955462      3.42600903476302
  C   3.35330886940257     -0.06074286819347      1.58085206334576
  C   2.90707693370299      0.96454007138187      0.86340797146537
  C   2.23101639049952      2.20947613124065      1.16454247067285
  C   1.05502156502554      2.46594448591276      1.73850086294768
  C   0.40354002105180      3.67347575165726      1.25502822801897
  C   0.29155898263822      3.84824028394411     -0.08674065942115
  N   0.38147684630522      2.83644828024561     -1.04116496186576
  C   1.20113680438562      1.99568866193360     -1.47873796144279
  C   2.72696896092742      1.76331275787730     -1.47356420826601
  O   3.33689537691460      2.09939901032113     -2.45490836434214
  N   3.29572277096371      0.93154505850799     -0.50946553855182
  C   4.53145564576890      0.32349058035962     -0.73581098641474
  N   4.98377004513165     -0.61117585033958     -0.01313681714695
  O   4.07780388209563     -1.04957326048038      1.00093644937152
  C   -0.27459118330136      5.05828170802527     -0.61207571038991
  C   -0.71802539454383      6.08127652424944     -1.05046731103056
  H   2.65611644287730      3.03390287380571      0.59684466892831
  H   0.54660830910732      1.76124042009533      2.38800375146535
  H   -0.05994269841420      4.40278220504855      1.90609683135660
  H   0.79250389134255      1.27750304139671     -2.19766761154738
  H   5.13235778219044      0.67839094943305     -1.56216229744546
  H   -1.11662443134595      6.98796625313205     -1.43931990447077
