23
Coordinates from ORCA-job 4949optt
  Br  3.74518780396948     -1.00045300304888     -2.07880885316284
  C   3.25644055792771      0.17537417838257     -0.70369291196776
  C   2.98246005362108      1.47527848949986     -0.88580497356062
  C   2.50931985167677      2.28141664484551     -2.05404527857710
  C   1.16294862579486      2.22511319091773     -2.03428994583417
  C   0.33293807070973      3.37024083536400     -1.67452342045718
  C   -0.31034090686525      3.14730844987317     -0.51870647718530
  N   -0.71750237024359      4.11628380421028      0.40569540863281
  C   -0.09487355085335      4.29127949858206      1.48766031821953
  C   1.25104065265603      3.71848971660243      1.93481552370283
  O   2.14120713199872      4.45074875677965      2.19594689585901
  O   1.35257590086404      2.34301180837877      2.14022200850929
  C   2.15544473303629      1.65662108026585      1.28493148932795
  N   2.55788369880906      2.20636953657335      0.22417181521529
  C   2.41517138381749      0.22979676106815      1.60609059967585
  O   2.13871250694447     -0.33490107575799      2.63305075283131
  N   3.07126314932855     -0.38396766229143      0.54832226523426
  H   3.01873735053040      3.21955554800056     -2.23988381590803
  H   0.73601923726115      1.27687674341478     -1.71336457536622
  H   0.57234931810244      4.37435563652055     -2.00247532565906
  H   -0.48370525560628      2.12626602797798     -0.18645927745948
  H   -0.45364730416392      5.05846381002348      2.17158534711102
  H   3.31336936068410     -1.35452877618246      0.69756243081862
