27
Coordinates from ORCA-job 4951optt
  Br  1.74628070716628      0.24873300613035     -0.88545654970877
  C   3.61979398419578      0.39810380547837     -0.68382066389025
  C   4.23213460815305      1.60252326693152     -0.35011075635237
  C   3.48272600373206      2.88727158026496     -0.06603994544519
  C   2.90797018825552      3.57583711183185     -1.33559391432375
  C   3.61780507093461      3.25219274295366     -2.65157857173741
  C   5.15331398678026      3.41614188470792     -2.70834062740832
  N   5.74231820610175      4.29198664316911     -1.70463381943056
  C   6.35404760560421      3.89358937836348     -0.56027850394751
  N   6.36317797787745      2.76243348083417      0.02495249771198
  C   5.63688176909587      1.64074856291729     -0.34565425154080
  C   6.30365038630662      0.44083240504092     -0.64948754861193
  Br  8.19761797798355      0.45657550907105     -0.73642258367516
  N   5.71028239126811     -0.69050750143085     -0.92558332600835
  C   4.38323984928167     -0.72721876868770     -0.94478089744957
  C   2.43886309430415      2.73562701281962      0.95377718266420
  N   1.63123379125385      2.68514324845608      1.76489185685854
  H   4.20080174822031      3.56375503723282      0.39290108086814
  H   2.91829619535526      4.65087161859351     -1.15329444569631
  H   1.86414513987589      3.28571997907581     -1.45148759465225
  H   3.16439222317636      3.89124024413835     -3.41113185384724
  H   3.38230449499980      2.22595313586623     -2.94251290325014
  H   5.43188266765254      3.81501619365168     -3.68326523149972
  H   5.64456500710614      2.44919702427255     -2.62971032014993
  H   5.91111373263262      5.24751573955464     -1.96993225506825
  H   6.90634890928398      4.69757141574809     -0.07674128991340
  H   3.91381228340218     -1.67185375698556     -1.18666476449569
