29
Coordinates from ORCA-job 4955optt
  Br  2.01612448512324      0.54877266243342      0.41791486352586
  C   3.44644492276051     -0.57310515954128     -0.08729652297961
  C   3.31351446619714     -1.65107569554772     -0.88463653630696
  C   2.03643667586725     -2.38894850411937     -1.17529708723724
  C   1.81614989639077     -3.45522553435663     -0.06438836273954
  C   2.25304999185236     -4.91120258700839     -0.29656671388529
  C   3.74010017123020     -5.30953515843896     -0.45967141232473
  N   4.62696005416155     -4.80329523698778      0.61618005218641
  C   5.99005367863917     -4.51993609864536      0.31447863140001
  N   6.46879892280409     -3.41207800346603     -0.08301829831553
  C   5.55971934687534     -2.35978649338513     -0.23446299885920
  C   4.49042714002323     -2.43938238497411     -1.04775113252053
  C   5.73351342570514     -1.16296857123008      0.59636777013271
  O   6.68659269503945     -0.89199626685734      1.29136709872417
  N   4.64710197397469     -0.28554247020558      0.50312816150758
  C   3.81723358732914     -6.77834418570328     -0.53684963820126
  C   3.87943773392136     -7.97449249491775     -0.55864193864355
  H   2.08787053189581     -2.86257990915709     -2.15942245247716
  H   1.19005280453981     -1.70399656072297     -1.18930131192121
  H   0.74336995142553     -3.51607509183986      0.13139109235016
  H   2.27179823622719     -3.08785727772366      0.85805070047412
  H   1.74042647427566     -5.30843413001836     -1.17750167430326
  H   1.87336561998884     -5.48779603323619      0.55136012979168
  H   4.11896973534779     -4.94457400546473     -1.40806462264860
  H   4.60388350397812     -5.47966423293683      1.37072928764938
  H   6.70522503861607     -5.31856421587705      0.51315210999311
  H   4.44353718697612     -3.24380759280924     -1.76304531201381
  H   4.74458203573565      0.55496320708471      1.05581652278195
  H   3.93925971309872     -9.03647197434728     -0.59002040513963
