28
Coordinates from ORCA-job 4960optt
  Br  1.19439787995484     -0.12316507560273      1.14975121966469
  C   3.00782959185006     -0.09538084184855      0.63665477961486
  C   3.66755544911214     -1.22709326875497      0.37910483012468
  C   3.14718096001340     -2.64228677541981      0.35389590603254
  C   2.40324099264468     -2.91428153965316     -0.95995294975590
  C   1.71403195772196     -4.28276288849400     -0.99481171564871
  C   0.69130144920617     -4.39364746063980      0.04536449210459
  N   -0.09490811766853     -4.45155348404860      0.87686171985837
  C   4.44111108303648     -3.46364159796944      0.46360737342744
  N   5.47840710931810     -2.55966248776041     -0.02674589959808
  C   6.75749853015692     -2.99782340107501     -0.30442242106458
  N   7.22248789389547     -4.16502004957268     -0.15522769004892
  C   5.08145288018075     -1.23068000499890      0.04807168598089
  C   5.84845336945441     -0.13306517395779     -0.12606535559138
  C   5.34408445817555      1.22255644755698     -0.03225792288339
  N   5.96334997583125      2.30359979664659     -0.27474306040203
  S   3.67644133393948      1.49813317651271      0.55007793118367
  H   2.48020994058497     -2.83654843847713      1.19575831681718
  H   3.10983664761380     -2.85511534310622     -1.79176983879319
  H   1.65281599127437     -2.13770734046804     -1.11398817185389
  H   2.42924733154606     -5.09564963951140     -0.85472152353400
  H   1.23747120196476     -4.44075007457332     -1.96291444219009
  H   4.42111938294987     -4.36566534659713     -0.15091579426213
  H   4.65092415935666     -3.75557506313473      1.49654569252013
  H   7.40202668593762     -2.22590191170714     -0.71589860747661
  H   6.54928832182945     -4.81053866955758      0.25461209616594
  H   6.90492859199554     -0.21235234972678     -0.34575747480569
  H   6.92021494812370      2.12257880593907     -0.57311317558639
