25
Coordinates from ORCA-job 4961optt
  Br  1.07483344568590      0.07906897194381     -0.43561386129240
  C   2.95437662778088     -0.05544335778168     -0.23877949948767
  C   3.58776231914265     -1.25337094979347      0.07207827772106
  C   2.87280437753917     -2.56196876213578      0.31053817926757
  C   3.18998757230844     -3.68716420837799     -0.68481362913112
  C   4.58026944603869     -4.38174169872825     -0.49829361663583
  C   4.64333283440103     -4.99774599358074      0.83421942161276
  N   4.67203742563917     -5.39996265394120      1.90596545401181
  C   4.73565507730839     -5.41102998006072     -1.53041931329299
  N   4.85510248147959     -6.15806826168833     -2.38950423445271
  C   5.67350174723885     -3.28825100953077     -0.64513127362086
  N   6.34083795049372     -3.07122922327569     -1.68203479286765
  N   5.71712135051760     -2.39286993249906      0.44128612921397
  C   4.98068657697151     -1.19102627874479      0.17422094180200
  C   5.65128705086101      0.00038463054970     -0.03478321645856
  N   5.02261955189283      1.13283747219830     -0.33070465360407
  C   3.70361694868798      1.10238869130933     -0.43023999445610
  H   1.79965296954210     -2.39242220590107      0.26755086431105
  H   3.08628474338018     -2.90855632358102      1.32713268816672
  H   3.15854011969494     -3.31506609713820     -1.70957370520905
  H   2.43220774249846     -4.46475498534756     -0.58746954222438
  H   6.16563444059142     -3.75022103530152     -2.42158469820362
  H   5.43825966815061     -2.81949815028048      1.31785223116622
  H   6.73205230996028      0.02027666777053      0.03538870671880
  H   3.20253522219456      2.03143467391670     -0.67528686305496
