29
Coordinates from ORCA-job 4963optt
  Br  0.93540370321021     -0.02497560948635      0.11539874903384
  C   2.81954458484565     -0.01697021622305     -0.01354158166019
  C   3.51537576440821     -1.15350059825935     -0.09666091024265
  C   3.00177121031550     -2.56939769382348     -0.13860191820612
  C   4.19454397660311     -3.34417898914736     -0.71203201803163
  C   5.42457450819903     -2.60313698023781     -0.16211367343967
  C   6.77084823358017     -2.89875346634966     -0.82087850020698
  N   6.80989641231367     -2.72441629770432     -2.26907736038635
  C   6.46368506539875     -3.76426051348433     -3.13803516740081
  N   6.03217375473498     -4.91523657512968     -2.86376163955586
  C   7.45687946236681     -1.62867207843759     -2.80644153243179
  O   7.98788481907206     -0.76000857868204     -2.16849546711472
  C   4.96694832729554     -1.15587567401795     -0.15864462905725
  C   5.74267804795155     -0.06336051382757     -0.17480791939596
  C   5.24438631568482      1.30687736044490     -0.14516196391133
  N   5.92877189322348      2.37350039853033     -0.20166342163455
  S   3.48924367783774      1.58101530901019      0.00207914652515
  H   2.09791260604194     -2.66694138296990     -0.73751251997277
  H   2.76343221297673     -2.91148563230151      0.87327694261718
  H   4.17941302733150     -3.26852995878442     -1.80081533344435
  H   4.18005905751662     -4.40090438043500     -0.44467825080459
  H   5.54242318417437     -2.89067685232920      0.89117150710544
  H   7.07037689815184     -3.92471086199474     -0.59662661919009
  H   7.53719331638259     -2.24254182604978     -0.41003369324788
  H   6.61456022414339     -3.49704630881396     -4.18263864143012
  H   5.91627548549334     -5.07618619568049     -1.86560412155358
  H   7.44684400454968     -1.63293072884184     -3.90558939085667
  H   6.82049524792779     -0.15066365872906     -0.24417689916959
  H   6.92240497826883      2.16196850375505     -0.28433317293607
