28
Coordinates from ORCA-job 4967optt
  Br  2.81380288492002      6.35003280655783     -2.73151243932887
  C   3.18107390713631      5.43582070637770     -1.14611108270330
  C   2.74715420428393      4.20720028874261     -0.87108346292191
  C   1.90081748690569      3.24080205668301     -1.59241107001663
  C   0.86331407457358      2.88886907990611     -0.81098863776042
  C   1.27398505394900      1.70499157815763      0.01726762030960
  C   0.23332709875757      1.13121300660915      0.96891042532389
  N   0.76975939445392      0.12802098311540      1.86188827888505
  C   1.26145168196858      0.36760201195983      3.11704840700632
  N   1.38758491964800      1.46455533394051      3.74393792562165
  N   2.34987006505442      2.38647042016782      0.79665843294253
  C   3.14999633710830      3.45483734357668      0.37225457616785
  C   4.26406035725638      3.81089225940786      1.03716435884643
  N   4.93364241266839      5.01261033550668      0.74160968650642
  S   4.12882727313123      6.27772164265763      0.09024782572055
  O   3.19898592885676      6.79739308505180      1.03567788491853
  O   5.11553681903354      7.11026052447622     -0.51578058492953
  H   2.46411000189631      2.43932356337410     -2.06857295829775
  H   0.37494799192072      3.67226676284566     -0.23455530968849
  H   1.68567458038724      0.90382540671433     -0.60558584824647
  H   -0.56194780289901      0.68099685804927      0.37418264189385
  H   -0.21355388016570      1.93805773603931      1.55457430220645
  H   0.74531834884673     -0.82985950232645      1.55930588221583
  H   1.59260218076258     -0.54651964765583      3.60923931424353
  H   1.04370063593966      2.26975234410165      3.22209769870146
  H   2.58138828124362      2.00006174999261      1.70059633281453
  H   4.66256931892847      3.23345830430825      1.86060841528780
  H   5.90900044343374      4.98534296166254      0.47133138428107
