24
Coordinates from ORCA-job 4973optt
  Br  1.65172372181832      0.00321316895126      1.64601241932556
  C   3.31236739165607     -0.07799797206594      0.78735992215056
  C   3.83804443305392     -1.20345781117064      0.29014038284617
  C   3.39576134819574     -2.62810539456036      0.16658406131444
  C   2.22166277146834     -2.79827131571393     -0.81197997940208
  C   1.42717755743120     -4.08297930316418     -0.55043649332534
  C   0.35872245415393     -4.25066570793096     -1.53269339871494
  N   -0.46983051582339     -4.35661652369828     -2.31677456059451
  C   4.75150122245200     -3.27304281344525     -0.28186244547079
  O   5.62462138642625     -2.20655821546628     -0.69179223045280
  C   5.13963287630037     -1.03490155521155     -0.27741667767286
  N   5.80985948690872      0.05003599349977     -0.40000049854237
  C   5.23034874363087      1.20093596137387      0.06193660317572
  O   5.65864381320462      2.29976252095792      0.00769543236885
  O   3.94282659349350      1.07654207012140      0.71704225990881
  C   4.65538746838113     -4.24747641221640     -1.44029619850046
  O   4.19851157084741     -5.34536999937385     -1.31075903818992
  H   3.11017341708466     -3.03564781232902      1.13815338814338
  H   2.57698782195573     -2.77523740886288     -1.84517974378351
  H   1.54792968432507     -1.94795391320477     -0.70131681525148
  H   0.97633930731782     -4.03980694724087      0.44336829084885
  H   2.06906460721172     -4.96403632930028     -0.58350621770359
  H   5.22544378894051     -3.78768868276581      0.55569598182993
  H   5.04109904956544     -3.87367559718290     -2.40597444430762
