27
Coordinates from ORCA-job 4976optt
  Br  1.21494944841847      0.04347505066153     -0.10105766745528
  C   3.10755020576670     -0.00674460850214      0.01314112560141
  C   3.78489298782885     -1.19133155403656      0.04043657208757
  C   3.07358023248150     -2.52378133935153      0.08582696792948
  C   2.42950703113919     -2.75705042968811      1.47738267970265
  C   1.33515543003017     -3.82575684300539      1.40915502867251
  C   0.78914566668949     -4.09306951701312      2.73809079880585
  N   0.38864427238844     -4.28018747867193      3.79497423956136
  C   3.96813359430551     -3.71583414896317     -0.19048692753493
  O   3.56133290903700     -4.69110271000488     -0.76291292031293
  C   5.35648713218061     -3.59462021181486      0.37312912341646
  C   6.01190205614350     -2.32052849858814     -0.12715334523935
  N   5.15810145095183     -1.13567004448822      0.04455698439317
  C   5.85823750101760      0.07795913983088      0.03632939510196
  O   7.07058361395739      0.11022970001799     -0.02728596373416
  C   4.99751707851006      1.25109909514134      0.08382866173120
  N   3.71185450062188      1.19846175455437      0.04657238932013
  H   2.28067479513283     -2.51462798871692     -0.66352577119289
  H   1.99877681336246     -1.82513912294711      1.83931509779458
  H   3.19498282096604     -3.05365818586145      2.19700883978397
  H   1.71652642027357     -4.75919533801638      0.99160038702554
  H   0.52487831818381     -3.48485484059871      0.76121261275285
  H   5.94521262512141     -4.46338270848395      0.08680605275403
  H   5.28665071307657     -3.56432884058683      1.46398073745802
  H   6.25920866037020     -2.40003810216562     -1.18863446480775
  H   6.94002663750668     -2.11656448387267      0.39919453461556
  H   5.49148708453819      2.21524225517161      0.11951483176898
