27
Coordinates from ORCA-job 4981optt
  Br  2.99137127988599     -1.19399266788701     -2.39387039365280
  C   3.19184444952395     -0.12928107825647     -0.86285717225721
  C   3.09032922286086      1.21813437700107     -0.87219649505301
  C   2.63289290812947      2.05563699200386     -2.02649319660282
  C   1.12906231570212      2.39127682874026     -1.87731834753148
  C   0.75213890008252      3.38975706995423     -0.76270315583150
  C   0.38176134022006      2.81856608716014      0.63437879554506
  N   0.97828722926823      3.57749524765623      1.72854725475707
  C   1.92972463438212      3.24399052002199      2.64339698639750
  O   2.39503569187554      4.04204418534574      3.42289732096598
  C   2.39320995860384      1.77067021844972      2.73428420527600
  O   2.16430478021904      1.13517452205866      3.72118686117527
  C   3.01924243858159      1.17835600325573      1.51856590903825
  O   3.13194582157068     -0.15525300686215      1.53652609203434
  C   3.39721264656946     -0.88137454259835      0.38668031370978
  O   3.68477767277912     -2.02949988245082      0.49138833394091
  C   3.15649600022096      1.89026335340636      0.39189720593639
  H   2.79229150916634      1.53353283038610     -2.96719669723353
  H   3.20771516258586      2.98482057119963     -2.05353513129741
  H   0.57156065673624      1.45798457625570     -1.75575116115961
  H   0.80791935057128      2.81384941522547     -2.83019001670312
  H   -0.10517747960335      3.96600875460058     -1.11369776437475
  H   1.55874986960483      4.11672185989558     -0.64209719244133
  H   0.66389495754729      1.77388959144320      0.73130971389637
  H   -0.70174377370458      2.84722563551773      0.75740861738352
  H   0.70662796060145      4.54916622085482      1.80745222082037
  H   3.08452449601908      2.96583631762197      0.42998689326175
