26
Coordinates from ORCA-job 4984optt
  Br  2.25642635832425     -1.34789595255279      2.89931520993389
  C   2.94980695111389     -0.54854676060731      1.35119593492186
  C   2.56960940126417      0.68245856291780      1.00600856129975
  C   1.63618032034783      1.64295230779712      1.59730936153884
  C   0.50686008651860      1.87956737664570      0.91134538614084
  C   0.47717996805815      3.19956383556464      0.30307883722086
  C   1.63459722089219      3.49348058020280     -0.33682842670397
  N   1.79597743712665      4.73685998586511     -0.98317232171360
  C   2.08482635384845      4.90934224951313     -2.31306693139840
  O   2.08464273506942      5.97920735719615     -2.85809114708598
  N   2.77814206209050      2.68499584781147     -0.50186643698088
  C   3.10274774817785      1.33865785115536     -0.22902799754202
  C   3.94237188344908      0.68027820064469     -1.05155523052998
  C   4.40330926630715     -0.66366858996365     -0.74190125045424
  N   5.17824393894691     -1.36317987831937     -1.46901289618845
  C   3.91192506746115     -1.31936335299914      0.54094296896940
  N   4.30278125548356     -2.46186330273249      0.91027741431019
  H   2.12900398134494      2.51252482869019      2.02627538914275
  H   -0.05752138331691      1.06708564854345      0.46027896215884
  H   -0.38363616033821      3.83822415345829      0.15702146529041
  H   1.42262775304744      5.55096887804649     -0.51540581874071
  H   2.31902766482145      3.96636281177982     -2.83383853235678
  H   3.49216569934001      3.14539289780529     -1.04382022080172
  H   4.27854739552895      1.12671183769275     -1.98083784433465
  H   5.46635568758628     -0.86043741038212     -2.30690107935397
  H   4.96780130750625     -2.82067996377340      0.21827664325773
