26
Coordinates from ORCA-job 4996optt
  Br  1.34415286796879     -0.51887351490282     -0.24039321430413
  C   3.18710063354244     -0.19258831621354     -0.10699953932007
  C   3.76283222460264      1.04186540086529      0.01559019888886
  C   3.31101916654970      2.39219041963483      0.06196393279096
  C   1.93879909920830      2.96097745269328     -0.11071417605717
  C   1.68828033889649      3.40157232843810     -1.56545906839490
  C   1.78080219364647      2.28169671924254     -2.50125534292109
  N   1.85941202881114      1.38612668905520     -3.21235658213448
  N   4.34771821625886      3.19879448511425      0.20551598919041
  C   5.49408805435130      2.45853948428604      0.26397501898818
  C   6.80084562053478      3.18356890624020      0.40619179334840
  C   7.87693450298315      2.33886578256230      0.92029655219851
  N   8.71194341277172      1.65948415947211      1.31259269095956
  C   5.22041013706344      1.11368060870172      0.14966634270883
  C   5.97890592111218     -0.08632123065618      0.13340883470766
  C   5.32857268611158     -1.26167141061741     -0.00639484000390
  N   3.95186881146895     -1.29519520720957     -0.12126210675500
  H   1.85879257038230      3.84765662039208      0.51792270381032
  H   1.16835760432980      2.25775986066902      0.19740429600373
  H   2.43608570361545      4.14321711380500     -1.84940026909982
  H   0.70215201865752      3.85629552862178     -1.67002039242842
  H   6.66801722143327      4.02530367799240      1.08803284510244
  H   7.12803339245921      3.59923192280785     -0.55103178399305
  H   7.05446368099050     -0.08388828717685      0.23380008075057
  H   5.81416229134783     -2.22422105237543     -0.03407305472613
  H   3.49224960090199     -2.18706814144220     -0.22400090931025
