23
Coordinates from ORCA-job 4998optt
  Br  2.28415564207094     -1.56263913701405      2.36806489587652
  C   3.19537437867222     -0.64929943164180      1.01134997030150
  C   3.19199246037628      0.67868541037676      0.92283432105957
  C   2.51039675520090      1.72633990368697      1.68138903079415
  C   1.46135276021112      2.27251805024544      1.04869180409427
  C   0.39090038328848      1.50143215250042      0.31770914941020
  C   -0.83188039933506      2.30178723053560      0.25560869544546
  N   -1.74101115242913      2.99725769257560      0.21624047112545
  N   1.73146144323186      3.58002564069792      0.64039125889986
  C   2.91877066589162      3.67409273899924     -0.07590512419559
  N   3.74137383202166      2.76584547124363     -0.43906162479104
  C   3.81623620137912      1.37944683165356     -0.27826664317263
  N   4.41680640496099      0.73681781406343     -1.20809223118425
  C   4.59238012058885     -0.64735569813901     -1.10552887833197
  N   5.35318516672170     -1.28523324391673     -1.88810434182468
  C   3.88255003942396     -1.46239047892728     -0.02643714218871
  O   3.87486804627079     -2.65861489547612     -0.01962946079750
  H   3.18545605024895      2.44048110863790      2.14371055405621
  H   0.19401971895661      0.55325300746840      0.81786527290624
  H   0.71023330444686      1.29176926756874     -0.71012497023365
  H   1.02122167470053      4.29032783990981      0.51333219988433
  H   3.14819356372936      4.69611933681295     -0.37295379062933
  H   5.76196293937135     -0.62866661186141     -2.55708341650441
