29
Coordinates from ORCA-job 5000optt
  Br  1.95640178037117     -0.06304404844301      2.76576541805774
  C   2.90489048407824      0.26563490483193      1.14905320386521
  C   3.47736244591657      1.46343102795318      0.90817801066912
  C   3.13713913021402      2.72983191294093      1.65263068870598
  C   1.71717289181595      3.16189389797133      1.23871308483093
  C   1.60391523366287      3.56365537657636     -0.24745925132988
  C   0.24081500632651      3.28362986007947     -0.82026070706562
  N   -0.58197189782295      4.23707095563609     -0.96027875389696
  N   -0.07704439556554      1.95093687306122     -1.16021467898347
  C   0.62449051950214      0.77176846389368     -0.80681774174133
  N   0.18057131622097     -0.15745224467819     -0.07890771762824
  N   1.86178022949024      0.66541511601437     -1.44298583491534
  C   2.91622430600452     -0.15409798472324     -1.11129021445150
  C   3.12339725472886     -0.72926225341557      0.10352837113454
  C   4.21453798182196      0.33007047065469     -1.64256818543509
  N   4.94911695812443     -0.08654954319448     -2.56386723227896
  S   4.58258939427367      1.73001150480642     -0.49539134333015
  H   3.85888203158626      3.51975706309971      1.43797488314137
  H   3.15987340610772      2.54008250405019      2.72593918301491
  H   1.38625636287058      3.99684908632378      1.85765336010404
  H   1.04583761009208      2.32791506444146      1.45457280173178
  H   2.36312165753538      3.05531012092794     -0.83657353413099
  H   1.76880273737931      4.63273738393857     -0.36068805601478
  H   -1.47743644484190      3.93395309707457     -1.34318962578833
  H   -1.07264897476981      1.78915192867473     -1.22378372241785
  H   -0.70588020410721      0.09059469348715      0.35049973321207
  H   1.98627130045282      1.26356503997292     -2.24543986089481
  H   3.99291082233011     -1.36964619901676      0.20290937658063
  H   5.84262105620100      0.40278592706052     -2.61470165474504
