24
Coordinates from ORCA-job 5004optt
  Br  1.01510181596706      0.06553921053714      0.18423922597580
  C   2.88480067971029     -0.05889477071436      0.08924368466282
  C   3.47479187480829     -1.27912763270958      0.03490262791152
  C   3.09125889929252     -2.66952274771102      0.03229972270196
  C   4.24336630450879     -3.35034531306331     -0.03039599547892
  C   4.56162522759013     -4.80437509679757     -0.07183697207178
  C   3.34315175331592     -5.60889917359058     -0.07477781117416
  N   2.37534890840812     -6.22006196678114     -0.07664045676465
  O   5.35403588618670     -2.52976237771580     -0.06826111210084
  C   4.89870600011505     -1.25478282921448     -0.03792850467102
  N   5.67951567669018     -0.24402524086111     -0.08314853067035
  C   5.07650359361218      0.99652562943773     -0.07965510007689
  N   5.67555920655610      2.11150488495874     -0.20444722044587
  N   3.64593109776054      1.06162317613604      0.06920131143403
  C   3.09664116768206      2.41048045324517      0.09949846184315
  C   3.05305568190750      3.01986801807478     -1.29302351186907
  O   2.44607024667281      4.02240349133550     -1.52450581946095
  H   2.10093703882608     -3.09165815922920      0.06960581049299
  H   5.17377199002710     -5.08121321439935      0.79053041797722
  H   5.14642989030664     -5.03423106684998     -0.96615151484234
  H   6.67311554122449      1.94485575076498     -0.29014191173782
  H   3.74739261437418      3.02792321623373      0.71687897625357
  H   2.09612015958646      2.40562063098510      0.51919710356698
  H   3.60576874487075      2.47055512792857     -2.07668288145537
