28
Coordinates from ORCA-job 5006optt
  Br  0.91750643959163     -0.22286671433009      0.16528032723905
  C   2.82497135455345     -0.18873206441253      0.33081726894182
  C   3.53729992788645     -1.37699770915943      0.50820188756062
  C   2.90084332100575     -2.73101992510232      0.63797654876882
  C   3.20598635325694     -3.67205589519701     -0.53064657620990
  C   2.21339760937551     -4.83314950543107     -0.57911452819580
  C   2.15492035999034     -5.54834923281672      0.69622992676269
  N   2.10716022374185     -6.07995461649251      1.70978121445429
  O   4.47816809950466     -4.28297290569664     -0.42934058805015
  C   5.61962376323639     -3.45750878737726     -0.54457868651374
  C   5.79320871543556     -2.48091387745266      0.63427690523526
  C   4.92874981186484     -1.25367045610078      0.54647906306345
  C   5.50012320753331      0.00735072949370      0.45444194757839
  C   4.67637163123992      1.10964271203987      0.31401346305085
  N   3.35304247773702      1.00921011975899      0.24153850976831
  C   5.66755332720042     -2.75407849768433     -1.83576038377306
  C   5.69521173845636     -2.15475949541787     -2.87171386815333
  H   1.82217836895542     -2.62333001137021      0.72745358317257
  H   3.24787889520167     -3.21953654716967      1.55342939541810
  H   3.13217746306477     -3.12568521773398     -1.47801207359683
  H   2.51270410349538     -5.53063319642029     -1.36121793718396
  H   1.21614804377725     -4.45773123646614     -0.81211514288987
  H   6.45233226365545     -4.16183052802500     -0.50883665587032
  H   6.84045582789510     -2.17963254127867      0.66571318939175
  H   5.58216947048889     -3.04566576919104      1.54614795429158
  H   6.57533937599301      0.12708896223882      0.48000993736475
  H   5.08513505029925      2.11051585095252      0.24159469162437
  H   5.72434277556331     -1.62773364415760     -3.79604937324970
