23
Coordinates from ORCA-job 5011optt
  Br  0.85305935905980      0.63677964506563     -0.91852820207592
  C   2.15707377961997      0.65673617282343      0.45545181614959
  C   3.23600217014702      1.48404380242188      0.43539062288489
  C   3.17105572839092      2.68257593013230     -0.33041553524509
  C   2.57842701598784      3.70877105530053     -0.53657528343120
  C   1.48630655692098      4.64861258061046     -0.27466700556715
  C   0.53641856172702      3.91353604850276      0.67095541572145
  N   -0.69768338364545      3.85254942368906      0.44167144175450
  O   1.22603994536058      3.37279063192350      1.70934779698614
  C   0.68603080985133      2.31471108496304      2.46889012378650
  O   1.77391626512735      1.73485972379844      3.14588489478376
  C   2.39172094520618      0.61175963528215      2.72627064836213
  S   4.11326257571146      0.60045138559868      3.07054352705362
  C   4.40178671246267      1.33629295720266      1.40382546740796
  N   5.52227718819672      1.78384066681928      1.06584564132357
  C   2.10269807693481     -0.16888694035375      1.64774582707421
  H   0.92414474156031      4.92590142854334     -1.16396383584729
  H   1.85539953864728      5.55838070342072      0.20353652781648
  H   -1.22156188699238      3.33722261319559      1.14571908681968
  H   0.16983004836417      1.59611810747156      1.82647690092991
  H   0.02324436766449      2.70308830045471      3.24234445539064
  H   6.25315731343793      1.64518436171700      1.76229324658732
  H   2.55039357025897     -1.15431931858301      1.61395642133430
