17
Coordinates from ORCA-job 5012optt
  Br  1.11054310679110     -0.06433981537065      0.52013128825720
  C   2.95242969313292      0.09552910517355      0.19933456088733
  C   3.73157828247967     -1.00332886042901      0.01604545675628
  C   3.34050076268904     -2.38888745110621      0.04349950787727
  C   4.36643814325443     -3.23361430620410     -0.16359389857656
  C   4.27135860812351     -4.73150920742353     -0.11891810830643
  C   4.91997706437493     -5.38634350016257     -1.25667424594362
  N   5.43441553012302     -5.90169451308058     -2.14013700401332
  S   5.90756823794720     -2.46820239657029     -0.43351101746257
  C   5.16246317587989     -0.87945939968522     -0.24044445302945
  N   5.86050563185516      0.18532331701949     -0.32861480827049
  S   5.19070881439911      1.66783500222039     -0.14318191746032
  C   3.45320009761721      1.47027425828063      0.17735457247126
  O   2.79409344628711      2.46207402007289      0.35593183726210
  H   2.32452015547399     -2.70903208817206      0.22201634119203
  H   3.22187173330750     -5.02608446852419     -0.09277957226778
  H   4.74282751626413     -5.10453969603847      0.79454146062709
