23
Coordinates from ORCA-job 5014optt
  Br  1.37324126196177     -0.37673620624924     -0.92188068305514
  C   3.21901337109432     -0.20184077492966     -0.54228550046749
  C   3.75738892826939      1.04541886672566     -0.27502045652158
  C   3.05559065212936      2.37789153432588     -0.20342703140508
  C   2.28145435568158      2.53004184327697      1.12210958135055
  C   1.72170190397586      3.87205895536853      1.23715526207317
  C   1.31003912442027      4.99573966076804      1.28606777132509
  N   4.13530191928636      3.36157229359979     -0.34258301972126
  S   5.56133569424819      2.80115652584164      0.29690109615602
  O   6.66810121704651      3.22580046654517     -0.49786538224266
  O   5.61853626059010      3.01979920901990      1.71532852694637
  C   5.11561856708781      1.12683878200566     -0.03179205635747
  C   5.96199305521246      0.03624584110515     -0.03625870412073
  C   5.39798661319305     -1.20350009232463     -0.30306353764624
  C   4.03552241826579     -1.32436205018641     -0.55660153121086
  H   2.36735750932340      2.49551945974699     -1.04194702540830
  H   2.96844977716639      2.34707453455126      1.95252461410031
  H   1.48718888951531      1.78279877982811      1.16432239485630
  H   0.93218327885383      5.98848265117207      1.34898812107009
  H   3.89851178306196      4.28767595536275      0.00460304188096
  H   7.02184243123332      0.15324950944748      0.14617828439307
  H   6.01954254623109     -2.08860225676690     -0.32475343045637
  H   3.60509844215183     -2.29232348823423     -0.77370033553874
