23
Coordinates from ORCA-job 5020optt
  Br  1.09657150398922     -0.20927004579940     -0.06706182045123
  C   2.96507262960469     -0.05791862411370     -0.06742544594551
  C   3.61714430206551      1.13511742356968     -0.06768497758650
  C   3.15625254702380      2.48719143081054     -0.06782775231283
  C   4.26413992710151      3.28507521367507     -0.06796971203848
  C   5.45899973372592      2.48383666508035     -0.06797899763195
  C   6.81137479654464      3.04661603005524     -0.06806014836348
  O   7.01940699998250      4.23851260952912     -0.06811620935132
  C   5.07627558113244      1.15416552330198     -0.06784950672867
  C   5.77479651608467     -0.09426507280861     -0.06779288559980
  C   5.02025796448690     -1.28389068172507     -0.06756659718110
  N   3.63925764763103     -1.22677130264117     -0.06738607364756
  C   5.67729570151316     -2.51652025980863     -0.06749175623711
  C   7.04836382675715     -2.54009244210293     -0.06763201877301
  C   7.71022893104761     -1.30236055496206     -0.06785890239299
  Br  9.61025114720011     -1.31115038226666     -0.06814894817300
  N   7.12279645042609     -0.14555958692715     -0.06792796546436
  H   2.12298995023323      2.79553943061960     -0.06781706426337
  H   4.28138408759526      4.36457487575181     -0.06807752709235
  H   7.64192619535452      2.32565388187206     -0.06810957037412
  H   3.11542493279692     -2.08913779289013     -0.06733950229929
  H   5.10660202663391     -3.43819830117762     -0.06731200834580
  H   7.60618660106916     -3.46414803704232     -0.06756460974617
