26
Coordinates from ORCA-job 5021optt
  Br  2.50110331835413     -0.53876801229728      3.38253082976872
  C   3.66456219358822     -0.23450983345783      1.89434171248600
  C   3.49872996460112     -1.01484850823283      0.72403372364450
  C   2.53925318454532     -2.16703837236359      0.60373686908022
  C   1.41945429855656     -1.92244217628772     -0.42775699170689
  C   1.90601502221250     -2.08926178439161     -1.87271589673766
  C   3.00333465219513     -1.12038459609956     -2.26546307022571
  O   4.23155008415971     -1.32819895312475     -1.55808967386317
  C   4.31929773056369     -0.70100563804141     -0.35298695797535
  C   5.27187227779414      0.28833223491327     -0.16895982665222
  N   6.23922102730679      0.84705830966890     -0.96087463778751
  C   6.84479747497783      1.80612444064380     -0.19475180056865
  N   6.34837156868306      1.91646932321146      1.00127880913323
  C   5.35197688467176      0.96741511500708      1.05347693938597
  N   4.53886796104426      0.71660782001563      2.07837144059400
  C   0.31028373327731     -2.85117815045099     -0.19053466395907
  N   -0.54770854572741     -3.59142207778091     -0.01997358401579
  H   2.09846986508787     -2.37611577132383      1.57332782683275
  H   3.09185346437672     -3.05978830397541      0.29744640128964
  H   1.02391528536843     -0.91193607630834     -0.28516801092622
  H   1.06883775407918     -1.94551759934254     -2.55911173468414
  H   2.26559642111165     -3.11183151197941     -2.00912487444922
  H   2.68299755657336     -0.08402171635394     -2.11934772884914
  H   3.25183677218866     -1.26111926994463     -3.31622514747325
  H   6.47445159756529      0.57947100959808     -1.90112581069904
  H   7.65905845284468      2.39791009869838     -0.58433414164199
