23
Coordinates from ORCA-job 5022optt
  Br  1.25600468591329     -0.50007884879094     -0.09322409210535
  C   3.10955599747976     -0.18708285651881      0.03476223939317
  C   3.70176069043718      1.03060397447593      0.08137757251544
  C   5.18230686490491      1.10695957190646      0.13689111066111
  C   5.54558885296796      2.41788694533164      0.14106560568249
  C   4.34577269716722      3.19562236918312      0.09935599667628
  C   4.36022502920215      4.66784318583235      0.09729870170043
  O   5.37566225110732      5.31293835038675      0.15017049383311
  C   3.22319122638889      2.38472718810570      0.06152087122862
  C   1.79482831177152      2.83822482466954      0.09153369122245
  C   1.22105298648567      2.72408811909805      1.48629927316488
  C   1.23932164572318      3.86444995477778      2.40233301622994
  O   0.04727908083081      3.46398814756046      1.74351044926067
  N   6.04760772793867      0.04989614326559      0.17559773488936
  N   5.68581410331601     -1.13648023004423      0.16322875278214
  S   4.03589177836071     -1.61912956201030      0.07772187253023
  H   6.54886653712235      2.81152189889850      0.17215909298048
  H   3.38128347239556      5.17425951154949      0.04042592293315
  H   1.18712158169310      2.25353838811373     -0.59903317182399
  H   1.71536057951935      3.87816480982619     -0.22327204961210
  H   1.22536529719858      1.72591239561781      1.91661473841384
  H   1.65664700527350      4.80618747147767      2.05970892684879
  H   1.25349159680230      3.69795824728749      3.47295325059488
