29
Coordinates from ORCA-job 5023optt
  Br  1.06613205504821      0.25272881302517      0.18149686160791
  C   2.95702779418665      0.19568502387584      0.00251872449157
  C   3.60684012015614     -1.04053765984524      0.01822786346840
  C   2.84337099749906     -2.33930008075200      0.07827443431408
  C   3.67323112897714     -3.52773656756815     -0.38868486168772
  C   5.01343847939805     -3.56802206428794      0.33352095447064
  C   5.79660139047446     -2.30542128222301      0.07565348172741
  O   6.99779808083655     -2.30246455254327     -0.03379425892121
  C   5.00776100663242     -1.03078301373417     -0.00991386134061
  C   5.71846210099260      0.16402663088417     -0.06408611147279
  C   5.05057401946737      1.37013108145679     -0.09287653247843
  C   3.65892585905322      1.39444961444014     -0.06857514040619
  C   2.97246797435045      2.70530075556758     -0.10897935679157
  N   3.09817585499786      3.62071186791397      0.74986737400799
  C   2.27857910009522      4.74283313199451      0.27422711987782
  C   1.49233090037312      4.15527614790090     -0.90945309027498
  O   2.18252955962606      2.92592837578487     -1.18923370647531
  H   1.93813729489994     -2.25350575110054     -0.52189512596133
  H   2.50781397086864     -2.49986250596495      1.10946099945333
  H   3.84447272204371     -3.44932988279698     -1.46579923658502
  H   3.12247875194272     -4.45306546982692     -0.21975864634626
  H   5.63043176867574     -4.41748266004397      0.04513802635201
  H   4.84727755471145     -3.62863397134193      1.41563087342611
  H   6.79909837309703      0.11670119141523     -0.07442967406379
  H   5.58730183116496      2.30866754263773     -0.12494949676511
  H   2.93531145482633      5.56427197464984     -0.01888422753260
  H   1.63063924416287      5.09923772647351      1.07292061618111
  H   1.50439532325815      4.76739198640560     -1.80777219505015
  H   0.46239528818380      3.90880359760321     -0.64585180722530
