22
Coordinates from ORCA-job 5028optt
  Br  1.14042402059233      0.04356864613096      0.11049701306730
  C   3.01165750117725     -0.00336429002704     -0.00128257786349
  C   3.72562857917133     -1.15941840732034      0.04448798688191
  C   3.30225029614812     -2.51734513216464      0.11768364734632
  C   4.41960552567070     -3.29728382003611      0.00430141821293
  C   5.59030980433695     -2.48279185585413     -0.13548763683883
  C   6.91822839951695     -3.06850944903367     -0.38036093856865
  O   7.11972645534217     -4.25461102435582     -0.29598766096329
  C   5.19111071967465     -1.15777718600995     -0.08881852237023
  C   5.87752580150979      0.08430993635313     -0.12175231156461
  N   5.33933992097632      1.25568122161136     -0.17811676801017
  S   3.74346153950869      1.52072342520433     -0.18434564857010
  N   7.30072185112261      0.09636613464627     -0.06724555091438
  N   8.03794101782780      0.85128640463153     -0.86160113895740
  C   9.26718917914874      0.66787243511645     -0.41461025915827
  C   9.21602154013879     -0.20774577801355      0.68364484130906
  N   7.95639342541498     -0.55017682031862      0.88388056133197
  H   2.27932898826660     -2.84476485358231      0.21076022429983
  H   4.45537861584762     -4.37643814110654     -0.00570555545106
  H   7.72337523889011     -2.38623723091434     -0.68806307714402
  H   10.10597080961882      1.15051774581915     -0.88527832934376
  H   10.00141077009859     -0.58686196077610      1.31440028326892
