24
Coordinates from ORCA-job 5029optt
  Br  0.97327347111725      0.19218353498981      0.01089758124598
  C   2.83902921240760      0.15056123048096      0.08909204236346
  C   3.58905022596681     -0.95751306285128      0.02227545344732
  C   3.09498245539739     -2.39006591301097     -0.07492422056224
  C   4.33932434551916     -3.21218876904770      0.34614673793789
  C   5.57457227606092     -2.36603146464023     -0.02606549460401
  C   6.12843286875246     -2.69111434886157     -1.39783733756748
  O   7.30182178443791     -2.72210514805557     -1.64374749016755
  C   5.02870626977932     -0.95275323467331     -0.06456364741666
  C   5.70498046627071      0.17145181945546     -0.36322427753843
  N   5.05655966572549      1.37991128936547     -0.41468262392824
  S   3.63966149821465      1.67883301415314      0.39819627544303
  O   3.91109644243431      1.75988843778909      1.79510137202116
  O   3.01283880581389      2.77099349861870     -0.27218607915490
  C   2.66021138854110     -2.67861482157435     -1.44218807790938
  C   2.32153834565957     -2.91042567741681     -2.56708123911017
  H   2.25532745765931     -2.55733609224268      0.60203969784508
  H   4.34466847498317     -4.19729754413740     -0.11832775880248
  H   4.31966997297650     -3.34711564377264      1.42693170255464
  H   6.38474702591555     -2.48033751350316      0.69352854340378
  H   5.36905365785787     -2.86289662475590     -2.18556944472399
  H   6.75681969668280      0.17389493643106     -0.62218329335663
  H   5.46996071011484      2.18381366745700     -0.86497409578272
  H   2.01267348171131     -3.11473557019709     -3.56465432563744
