24
Coordinates from ORCA-job 5036optt
  Br  1.03310515643623      0.15450418655715      0.04104708854707
  C   2.91720782583186      0.10061097749030     -0.05612010891042
  C   3.57486037110831     -1.08080920996315     -0.04182883035604
  C   2.80345332075284     -2.37962021346352      0.00594271952792
  C   3.62224775969113     -3.59281324897551     -0.45623534419418
  C   4.93488602592305     -3.68625808529562      0.30865782380534
  C   5.77692501143367     -2.46240749834208      0.05280177457673
  O   6.96599055023636     -2.50831869748960     -0.08407622720248
  C   5.03814219527604     -1.12833882819742     -0.03071749856384
  N   5.81120101480143     -0.10616514653968     -0.05916287100238
  S   5.30464153697195      1.43260461898330     -0.12514320286826
  C   3.53817518968120      1.42949927958793     -0.13342373850206
  N   2.85892603338119      2.49617316835487     -0.19524820787692
  C   2.31175582944720     -2.63649612065854      1.42856192271065
  O   2.80487898816695     -2.12092841923547      2.39465114716161
  C   1.23519656496529     -3.61564509987097      1.53845382304985
  C   0.35492415003936     -4.42619152397847      1.59350936811757
  H   1.92071700969818     -2.29743769614960     -0.62881521262886
  H   3.81677416313858     -3.49578904332786     -1.52650014934840
  H   3.02797515986962     -4.49732887042045     -0.32064206957213
  H   5.51966647585236     -4.56126888761064      0.03142945291496
  H   4.74310918106339     -3.73755022416163      1.38594558800301
  H   3.43777441403495      3.33309275927214     -0.25215608007140
  H   -0.43053392780124     -5.14211817656541      1.66506883268264
