17
Coordinates from ORCA-job 5038optt
  Br  1.05295296361075      0.22859395426910      0.02179095758890
  C   2.91500741725648      0.05819177219477      0.02012884664243
  C   3.53799586182980     -1.15702432279153      0.02018771792191
  C   3.08156126400605     -2.51865756190300      0.02107448881394
  C   4.20083414086480     -3.32333538781511      0.02186663718600
  C   5.39422244726277     -2.54234559911586      0.02142644040354
  C   6.76307993836287     -3.04349123630469      0.02235369147254
  O   7.05540166519848     -4.21179860172814      0.02501290040004
  C   5.00733234944135     -1.21920278571121      0.02022169290338
  S   5.89625780231694      0.21099498984812      0.01903914545807
  N   4.78776787827543      1.42863566566027      0.01840045197613
  N   3.53437542724603      1.27806432537653      0.01913797731215
  C   1.74496959965750     -2.99724805658454      0.02060922654055
  C   0.63847709262271     -3.45873913836659      0.02013123696875
  H   4.19017252677071     -4.40324004255504      0.02263803848322
  H   7.55334680465899     -2.26627835153798      0.02032944199269
  H   -0.34975517938173     -3.85211962293506      0.01965110793576
