22
Coordinates from ORCA-job 5041optt
  Br  1.23177486963168      0.44574374745799      0.49367626790173
  C   3.11540219152659      0.29078392086515      0.29180907548896
  C   3.69419037162885     -0.96900972992561      0.13371566327566
  C   2.86068049410481     -2.23975830222863      0.05971117718880
  C   2.24566658405765     -2.34220033377598     -1.26824083518112
  C   1.78333844793139     -2.44250009937979     -2.36696402162914
  C   3.61696734111652     -3.56792757830300      0.27527492554551
  O   3.06354737805016     -4.57280182222895      0.61529697675102
  C   5.05379520746219     -3.46167471959493     -0.01099993022424
  C   5.73107062271718     -2.29264745092539     -0.13608793613305
  C   7.07093903456765     -2.73056225899243     -0.33571906038741
  N   7.14412486651003     -4.02981205519670     -0.32544101383357
  O   5.87587081771030     -4.49951196363081     -0.11310754463627
  C   5.08638251191033     -0.99495728223297     -0.00554690808808
  C   5.79845844225644      0.19967022504623      0.01320391087366
  C   5.09962426255269      1.38060883867981      0.17495729368813
  N   3.77766500781245      1.42436296260633      0.31777344936750
  H   2.06984693584510     -2.21150518278777      0.81230885600067
  H   1.35740586627202     -2.53282846662562     -3.33784687674423
  H   7.97208784209900     -2.15812736648610     -0.48864710762313
  H   6.87507029443109      0.20679824742338     -0.08939675029328
  H   5.61409060980581      2.33385667023581      0.19627038869189
