25
Coordinates from ORCA-job 5048optt
  Br  1.14992982593599     -0.14375345687597      0.11345902415784
  C   3.03081913529902     -0.14678039488918     -0.06062827521035
  C   3.68488938684158     -1.33447027836554     -0.19361982440822
  C   3.23348998623030     -2.68720748287813     -0.25997165266309
  C   4.33204675534749     -3.48739863928704     -0.43767615488163
  C   4.34215856124503     -4.98139157741058     -0.52755916980560
  C   4.88407664866875     -5.59093218789496      0.74763628209879
  O   5.74934516498817     -6.41833800100938      0.78714079108979
  C   5.52540258691947     -2.67964183885182     -0.47717318083833
  C   5.13768599067024     -1.37855811743929     -0.33393603300403
  S   6.14598961328780      0.01366858437467     -0.29409279660923
  C   5.00934481382665      1.29893243225978     -0.14993050879883
  N   5.52837089791141      2.57820117059159     -0.11134609717408
  C   6.83904336938041      2.96756487628482     -0.33382180376788
  N   7.29985703994628      4.14032685263260     -0.27139901785373
  C   3.65524697634188      1.11802413430362     -0.04803219389260
  H   2.20359156913813     -3.00317078780735     -0.20434892728953
  H   4.94611734383005     -5.34198988151230     -1.36109093671677
  H   3.31869125970108     -5.34695295060356     -0.65284862217371
  H   4.42042899966173     -5.20826289925352      1.67823806242212
  H   6.53185090979051     -3.05136436126347     -0.59976547853558
  H   4.86292974024841      3.31373811267537      0.08040840883768
  H   7.50627902424004      2.14961841507062     -0.59395284593351
  H   6.59327417479706      4.83181013716542     -0.01780768345529
  H   3.03214022575238      1.99832813998362      0.03911863440575
