25
Coordinates from ORCA-job 5049optt
  Br  1.53793620662666      2.08141713091412      2.79525151046737
  C   2.45880183518053      1.26404992268060      1.37305772887153
  C   3.34131881300171      1.93198066625778      0.61169283042955
  C   3.22982877850411      3.42496264052389      0.38295001454417
  C   1.99039265079072      3.46821791446027     -0.48929753101345
  C   0.76949695684409      3.76949287773310     -0.06018812385126
  C   -0.49350763704510      3.53311510857131     -0.83903830795881
  O   -1.48161313494177      2.87605528515788     -0.04567186168811
  C   -1.62851162588881      1.48730202066482     -0.22332704148121
  C   -0.49541495769406      0.70042208510791      0.28422026315705
  C   0.48906025503998      0.12517995176746      0.67115567341640
  C   1.90945086659093     -0.00747792169588      0.86170661759749
  N   2.57456008476323     -0.92636178347072      0.27030825470805
  S   4.20094429508106     -0.62549129416165     -0.02800785175479
  C   4.23753548194193      1.14214146779057     -0.25362260655212
  N   5.06536787065832      1.71591734884813     -1.02390907289863
  H   4.11774769536208      3.79179340091322     -0.12593822161939
  H   3.07764118550908      3.96456544790253      1.31495986891643
  H   2.11529287723024      3.03895013912957     -1.48145801128255
  H   0.62588235000952      4.18627192833640      0.93162998923091
  H   -0.28372226539688      2.96083065721253     -1.74865519485449
  H   -0.94760750959415      4.48272423408913     -1.13082409544562
  H   -2.53652861332464      1.20895666588919      0.31300963053433
  H   -1.77782532224199      1.24670762711404     -1.28245884412672
  H   5.62747286299322      1.05327647826375     -1.55654561734612
