27
Coordinates from ORCA-job 5055optt
  Br  1.09907529000934      0.01957387599909      0.18652497106569
  C   2.97544594636562      0.04305994918140      0.04536554545238
  C   3.65178405814656     -1.12960525441761      0.01741846356240
  C   3.20692779024022     -2.50190671771970      0.06270819602975
  C   4.30598150166212     -3.27183459101683     -0.00472325931261
  C   4.48274649793732     -4.74518954528762     -0.01943541638992
  C   5.27212839161875     -5.25126149096566      1.17801530661114
  O   4.52547384883903     -4.97442061734329      2.33683353293686
  C   5.17912204795867     -5.41045282405199      3.50605830225320
  C   4.37964001940172     -5.06985206648938      4.67871849186198
  C   3.74254286288001     -4.79975457418877      5.65436724595080
  O   5.46167932262302     -2.54146312052060     -0.08464939478618
  C   5.09091547506516     -1.21844584946149     -0.07789007129070
  C   5.94464052507081     -0.19765000686046     -0.15558556987840
  S   5.37987292300812      1.43151070656534     -0.14901648527839
  C   3.59641934205301      1.35989737260619     -0.03539104498161
  N   2.92048715695995      2.43494804249382     -0.02714205574924
  H   2.19050900428012     -2.84591627279283      0.14169987666864
  H   5.01235180287179     -5.03007925428321     -0.93244246784261
  H   3.49992047105790     -5.21511621031931     -0.03138253648275
  H   6.25073643037343     -4.75788924111790      1.22615337368479
  H   5.43815310901429     -6.33106444382855      1.07776983835687
  H   6.16579460999243     -4.93728819408645      3.58973522477388
  H   5.33456031755184     -6.49652210344028      3.47251099391042
  H   3.16850122860649     -4.55190440502985      6.51507851023637
  H   7.01516065898766     -0.32744945279652     -0.22847764838111
  H   3.49542936742457      3.27107628917243     -0.09782192298163
