24
Coordinates from ORCA-job 5056optt
  Br  1.45185929920032      0.48504495402772      1.30824532856141
  C   3.22762802531112      0.25083538938374      0.77823240968228
  C   3.66564237536581     -0.78829439138361      0.05699779475378
  C   2.99339685109263     -1.99296477316864     -0.53751398803437
  C   4.16556804504203     -2.92251453873066     -0.92273059177409
  C   4.01660593583989     -3.67178143837261     -2.23213245481578
  C   2.93042149910299     -4.71911697218826     -2.17619556406981
  O   2.29201847726940     -4.95526513919895     -1.18311258931877
  C   2.70409525690865     -5.44212509955262     -3.42336252989171
  C   2.55258630592845     -6.01228931951736     -4.46551611057475
  C   5.42713072023617     -2.06192563554185     -0.90798542402775
  O   6.48561504819032     -2.33585651036093     -1.38684258397986
  C   5.07924239323099     -0.77724788554751     -0.17464809351089
  N   5.91512664200129      0.12668448199175      0.17023411269986
  C   5.39697093404923      1.24148030986752      0.82338619504675
  N   6.00630967999711      2.28824774225832      1.13846563899582
  O   4.03765072696573      1.21268634543278      1.19684851381113
  H   2.41763149452818     -1.71283955249550     -1.42426220483017
  H   2.30366255802580     -2.47438319155032      0.15327537549301
  H   4.30266152273444     -3.65413565493220     -0.11842685308049
  H   4.95610621669271     -4.16465932624093     -2.50044054388096
  H   3.79165224011042     -2.99091134282335     -3.05956844876587
  H   2.40716892050580     -6.52646547475486     -5.38674338894533
  H   6.97824883167042      2.20279702339835      0.85379600045659
