27
Coordinates from ORCA-job 5060optt
  Br  2.28384295243617     -1.86290898890731     -1.60597262400675
  C   2.89933305948223     -0.31268642326928     -0.74341945211160
  C   3.37532688123509      0.89762438099467     -1.41889982370542
  C   2.63104357984883      1.97438958188833     -1.70747423208912
  C   1.33196740364841      2.24261555274083     -1.03645575038108
  C   0.18463492282177      1.27951869011955     -1.08744782841562
  C   -0.26434033301376      0.98723121434006     -2.50410516228769
  O   -1.41287107472509      0.89486034618233     -2.82716783188628
  C   1.40181025975156      3.25580549782890     -0.16265225743733
  C   0.69588648334636      3.42160622797169      1.14907695943359
  N   1.04506031486302      2.73904617965645      2.16620546181405
  C   1.92573698805573      1.66989150511754      1.86179809889964
  C   3.26973740050400      1.63818970471053      1.91338104794340
  C   3.96981050661243      0.69254119652046      1.05157242534073
  N   3.18572136670605     -0.32678649978696      0.54108688979133
  C   4.96900374786142      1.10275801666527      0.08521433722249
  N   4.77526371471675      1.03030254326893     -1.19707884683561
  H   3.19569139204927      2.84694170900843     -2.02214578001527
  H   -0.66864726401040      1.63254816384871     -0.50900490092252
  H   0.48904277415915      0.30703838131174     -0.67952782721923
  H   0.55161730202531      0.83622675773957     -3.23744218986216
  H   2.28619899107690      3.88918731984650     -0.21587541426626
  H   -0.03087530226217      4.21849513733610      1.29701444625573
  H   1.39557198973636      0.85153034920325      1.38923616544997
  H   3.82949816893015      2.46652180440790      2.33105942539649
  H   2.77072661755214     -1.01396541505855      1.16376825731141
  H   5.94420715659229      1.42947706631434      0.43825640658312
