25
Coordinates from ORCA-job 5062optt
  Br  5.08458415272137     -1.30927432268189      3.33543028651835
  C   5.65173672219600     -0.79774345748902      1.62497574528860
  C   6.88252654264059     -0.27474366635827      1.40777243682658
  C   7.30477646283726      0.09277926783767      0.05789075656296
  C   6.76268612696634     -0.51159730371623     -1.01796149410244
  C   7.79797881735352     -0.96434034165061     -1.95167207433310
  C   8.07153372743555     -2.26891353448857     -2.04835342766736
  O   9.39421269944054     -2.66515083676000     -1.92509513121878
  C   9.91635881142299     -2.27229369321819     -0.70299320376931
  C   9.17412203356927     -2.07200456074554      0.38902034427834
  N   9.64233821527137     -1.55781171530914      1.61291960701826
  C   8.99374062950573     -0.66657838204358      2.43426669740921
  N   7.83507122355252     -0.13891401682824      2.39740792830173
  C   5.43546645223746     -1.13880209588001     -0.88827002870815
  N   4.82252866544006     -1.73384364257907     -1.82216971643040
  C   4.75403875317512     -1.08600927141801      0.49471715497153
  O   3.58855314904753     -1.35196519190957      0.60441799788881
  H   10.59334217741457     -1.76028151963253      1.87743116801448
  H   5.36498969778361     -1.69489104711833     -2.68958466487455
  H   8.28928364574122      0.53948696735635     -0.01165134622387
  H   7.34881827936779     -3.07485369782377     -1.98705582554578
  H   8.65965549794524     -0.30750834533926     -2.01158204756682
  H   10.98854060695444     -2.12930012692275     -0.74174389665285
  H   8.11490027600578     -2.27672779878007      0.37277357541028
  H   9.61621663397406     -0.40071766650135      3.28610915860426
