25
Coordinates from ORCA-job 5063optt
  Br  3.66394831338110      0.77845049322416     -2.96264385765646
  C   3.53457383421059      0.45148614740374     -1.12591419893919
  C   3.29926566575030      1.35314120013608     -0.15995346697192
  C   2.81938959080757      2.76991954984857     -0.45648076576213
  C   1.39033935804139      2.58525165236845     -0.17196562880039
  C   0.36621985666513      2.07942840709081      0.20818895269094
  C   -0.51298073248840      1.08909918783555      0.81467467805319
  O   -1.26179121859501      0.39784232092262      0.17368104708147
  C   -0.35819583486941      0.88353162590626      2.31858279477057
  C   0.43643801405460     -0.38469648474756      2.70130883142066
  N   1.89954347197581     -0.22752222648072      2.69490564925475
  C   2.50886579316943     -0.05954299652779      1.46033375830012
  N   2.39662440226430     -1.08427567435564      0.56116510324226
  S   3.55695778555695     -1.23008492153843     -0.64510680387137
  O   4.80909979623179     -1.56655258187842     -0.05774924979784
  O   2.98328556158450     -2.06511508131541     -1.64439989562358
  N   3.10372153726189      1.04542613523274      1.17487009483921
  H   3.01460128106225      3.07364979827594     -1.48137897575185
  H   3.26901129044508      3.47621958389753      0.24076653267819
  H   0.09762213422566      1.75830078982007      2.78448956520685
  H   -1.37204106048047      0.76803581116492      2.70683487416750
  H   0.14671444156441     -1.20997365153193      2.04948226995234
  H   0.16104804950071     -0.67202142331690      3.71461707559631
  H   2.16437475334334      0.56890607869107      3.26488907514035
  H   1.87936391533646     -1.92490374012573      0.78180254078002
