26
Coordinates from ORCA-job 5065optt
  Br  0.83695601997593     -0.16818153379454     -0.14558829961009
  C   2.71830687606724     -0.20432377777785     -0.07006097501117
  C   3.38227356615748     -1.35667982572480      0.03380042302241
  C   2.89136188647406     -2.77100635754980      0.14147995385412
  C   4.17461150279943     -3.56464609245752     -0.16394976326872
  C   4.38029519541564     -4.80779991300277      0.68052755150964
  C   3.30881465784800     -5.85140803508748      0.52718739745584
  O   2.32630372643040     -5.72157323154726     -0.15087503927864
  C   4.25268521758054     -3.85139110921760     -1.67342624126187
  C   5.47969478213041     -4.55494403388989     -2.03631097689633
  N   6.43339304925170     -5.13873258378212     -2.28551232556354
  O   5.25615628048005     -2.66828326049869      0.16896541136421
  C   4.82647380649994     -1.38675872550979      0.08558660825960
  C   5.66482163661297     -0.33856806760644      0.06600048112711
  C   5.20546328162274      1.03544666720893     -0.00042748196564
  N   5.89989563284159      2.09691536219323      0.00246963614005
  S   3.44884213420857      1.36320610391208     -0.13559221861771
  H   2.08481743622478     -3.01000073337601     -0.54857576460334
  H   2.53557080509717     -2.98378249012160      1.15328966549751
  H   4.42295390196020     -4.52603798073776      1.73794406523855
  H   5.34870311758328     -5.26636136243042      0.45442979297859
  H   3.47511474936816     -6.77949997226660      1.10302395596484
  H   4.20644463758018     -2.90452985535473     -2.21653975349602
  H   3.39714993989923     -4.45946961782093     -1.96887828504193
  H   6.73450778654880     -0.50291577914013      0.09986684289982
  H   6.89438837334142      1.88732620538050      0.06716533930270
