23
Coordinates from ORCA-job 5071optt
  Br  1.03532143402306     -0.04806683332860      0.32208606662013
  C   2.90128746552480     -0.02375578325611      0.18554090473675
  C   3.61767543472523      1.11694567751293      0.10057690213846
  C   3.08940014384031      2.52678796788328      0.06699446883630
  C   2.42428569569371      2.83383673783400     -1.19588791951164
  C   1.92076990655365      3.09076337073836     -2.24959547166119
  C   4.36965829228070      3.37665474425007      0.19080988816608
  O   4.41409746303500      4.54465179542887      0.40720944289451
  C   5.56711041135155      2.46111676124852     -0.00226639139316
  N   4.99612153474414      1.12850151975209      0.01252579831069
  C   5.82098222045882     -0.01248416325152     -0.03238100879697
  N   7.09090803970538     -0.00859925782617     -0.12874636514150
  C   5.03746513782842     -1.22339943321881      0.05033671709428
  C   3.67542070310102     -1.21601975049831      0.15748505029604
  O   3.20750502623004     -2.45502352846353      0.21641570755476
  N   4.28003316709154     -3.33636537762327      0.14470286930371
  C   5.35039849994779     -2.60930250565607      0.04769463847047
  H   2.42182365596995      2.73358299166252      0.90693891826924
  H   1.46153709991486      3.31457135513737     -3.18330333648695
  H   6.28765209924374      2.60402420601261      0.80625055537702
  H   6.05916230278812      2.68424521036010     -0.95395287014692
  H   7.49424057467366      0.92092378158346     -0.18610783816867
  H   6.31714369127440     -3.08158948628181     -0.02432672676145
