29
Coordinates from ORCA-job 5074optt
  Br  1.05008857294773      0.25782969188143     -0.35062663142066
  C   2.93916985466023      0.13318294501050     -0.19450446006853
  C   3.58372988348761     -1.07695896407687     -0.46770082568348
  C   2.79628558681630     -2.27613913904659     -0.93685378210989
  C   2.15784319175983     -3.07572927247733      0.21963585824482
  C   3.06669024272713     -4.14091666383008      0.85906791156598
  C   4.44342302297728     -3.57394182269030      1.09549316006186
  O   4.79645268616132     -3.10928066256861      2.14599180217329
  C   5.38835196793385     -3.54826210489143     -0.11562296046663
  N   5.78539226545193     -2.20208328251552     -0.49647203137586
  C   4.97359519443648     -1.08964214458749     -0.28253786598187
  C   5.59447049828083      0.10292364385175      0.10512727067799
  N   4.96093340481570      1.23639105945849      0.31990595405315
  C   3.63922199433449      1.27138927314148      0.18764259455288
  C   2.97792290075325      2.59652978846016      0.49286353963492
  C   2.42569102031665      3.24924487963826     -0.69603942950035
  N   2.00192637238138      3.76808769436900     -1.62508643597889
  H   3.42174544404208     -2.91105662023886     -1.56125213308046
  H   1.99939749081417     -1.91423838979691     -1.58352108143386
  H   1.25732836056831     -3.57104790206665     -0.14385354417023
  H   1.84276812912302     -2.37326818995333      0.99253077430403
  H   3.14597092594611     -5.00127318926018      0.18997000205730
  H   2.64923786148991     -4.46622139371452      1.81028291477671
  H   4.95084550927705     -4.08692517261119     -0.95515672665288
  H   6.28712603475980     -4.09098712147922      0.18079878227266
  H   6.74211700577464     -2.00281803276551     -0.25145455582635
  H   6.67145959190768      0.11574650535685      0.24810966775641
  H   3.73558864319486      3.24943725107561      0.92325364346825
  H   2.16922634286031      2.47502733632708      1.21600858814968
