31
Coordinates from ORCA-job 5079optt
  Br  1.06143472064102      0.23620734730219     -0.42154968810462
  C   2.81404092888168     -0.45392900517419     -0.18320149149621
  C   3.03123253393292     -1.57457472175108      0.61072691386810
  C   1.96494065468369     -2.53640208133810      1.03843668973579
  C   1.65807977801807     -3.47531876772819     -0.16040549352739
  C   2.88361857235993     -3.95782649106235     -0.94973334242540
  C   3.90148496526324     -4.69546250908706     -0.10579459206977
  O   3.56785998709671     -5.30511340517344      0.88141936845350
  C   5.37469590078285     -4.77129010449265     -0.53996901470450
  N   5.97061981314732     -3.61733801862812     -1.18929210667561
  C   6.49258371728278     -2.55930679504813     -0.30965594689077
  C   5.36244852458041     -1.57821680290526     -0.09460952716345
  C   4.34781321659689     -2.01448336851127      0.73496824625249
  C   5.12278855167106     -0.44535261982078     -0.88622363619502
  C   6.11943598426864      0.17948916138482     -1.78793370368346
  O   7.25656182292469     -0.17624832139337     -1.95544990059094
  C   3.85786334754315      0.13971427581312     -0.87372746985353
  H   1.04756176836190     -2.03494680952245      1.34293277109090
  H   2.32888603772648     -3.13138027876480      1.87539617861441
  H   1.00293385292659     -2.94738030089233     -0.85622851708171
  H   1.10841722660948     -4.33634115324409      0.22020883338486
  H   3.37563417723476     -3.14960296599268     -1.49186321127010
  H   2.55153294880655     -4.67402211597056     -1.71019040849738
  H   5.40388320203638     -5.60414495610184     -1.25036056300135
  H   5.92069734859075     -5.09456470254178      0.35575813631181
  H   6.68285827236650     -3.91003060363270     -1.84077138193702
  H   7.34151003525416     -2.08888451554830     -0.79196353682511
  H   6.81311916704638     -2.96951556985699      0.65612297142265
  H   4.53696629114809     -2.86441805988958      1.38098134195150
  H   5.72925179365205      1.06255668363477     -2.33042972644298
  H   3.67124485856481      1.02312757593725     -1.47259819264965
