28
Coordinates from ORCA-job 5080optt
  Br  1.57449909290046      0.70000064522886      1.85203433933279
  C   3.18329853549332      0.48938262726118      0.90825520766311
  C   3.65580099151503      1.44324248945561      0.05748226324190
  C   3.01067986238602      2.70562604754767     -0.19932414212056
  C   3.54980481336162      3.61742787818028     -1.03957787255732
  C   2.89954547062723      4.96108744741257     -1.22281232921541
  C   3.48998698505849      6.00448344198608     -0.28692270018538
  O   4.86258435135494      6.18611508826994     -0.62191538925114
  C   5.66405971703159      6.70542367658120      0.33429523518185
  N   6.87014600580159      7.00059312275043      0.16873208481835
  C   4.78871602498690      3.33988096337353     -1.73661660183178
  C   5.43633535347970      2.17784164772616     -1.54462136862260
  C   4.90781531736456      1.19130173519284     -0.63831481608740
  C   5.54203247836837      0.02455471115357     -0.40022361737853
  O   5.07918926254564     -0.89810340392390      0.43795942817031
  C   3.89884885209827     -0.74682451523288      1.16408121178715
  N   3.53759230912220     -1.64855633080484      1.96706249081632
  H   2.08009271635838      2.91590054783817      0.31068302522950
  H   1.83083322215846      4.89119712265020     -1.01379635010700
  H   3.01794796458181      5.30538578540110     -2.25231869605989
  H   3.40325927388728      5.66487821678063      0.74906425709153
  H   2.96252370070001      6.95596719543260     -0.39314052848533
  H   5.18263910272220      6.84730044633435      1.30289393501303
  H   7.16440678408260      6.81166227302096     -0.79001047705594
  H   5.18552473662974      4.09281671315861     -2.40413468088741
  H   6.36503828162120      1.96081570933775     -2.05812135256934
  H   6.47511783624662     -0.26748968845330     -0.86377096049161
  H   4.20368095751571     -2.41691159365943      1.98007840456081
