23
Coordinates from ORCA-job 5087optt
  Br  4.49049738576379     -2.94785206070879      6.81218006578350
  C   5.85016753408749     -3.06906929960432      5.54522341383799
  C   5.87997277912810     -2.44975266039337      4.34151583653814
  C   5.54124969582874     -1.03337673873831      4.23527212204642
  C   6.45116292561350     -0.27739510498072      3.59434198412543
  C   7.08902044892848      0.84338158414826      4.26570026114228
  C   8.42002033994226      0.84597725051847      4.22423374039300
  O   9.18331875282678      1.55474171624756      5.13474706329185
  C   9.95239696591706      0.82797915617410      5.96855683191383
  N   10.07407064122276     -0.41349546096196      6.09207846419585
  C   9.72024254470847     -1.53256285977467      5.37864907780506
  O   10.21385468299203     -1.84195680022949      4.32210930198103
  N   8.78064684482482     -2.33862419512271      6.09853610823176
  C   8.06428946230732     -3.10082120861464      5.40108953523571
  O   6.97436380462630     -3.72077831848043      5.99123100375237
  C   7.95559335647919     -3.28775453980558      3.92393093878895
  N   6.83957877206505     -2.94266508610050      3.43121646207849
  H   4.94337387455681     -0.62386432424615      5.04091453743255
  H   7.05855997892280     -0.75042473953736      2.83126078769669
  H   6.56113141957858      1.43260657859276      5.00675913671398
  H   8.99685832910593      0.22697026326001      3.54638663398141
  H   10.50336523366227      1.49448067494877      6.62481207368366
  H   8.75626422691143     -3.69274382659091      3.32025461935000
