29
Coordinates from ORCA-job 5101optt
  Br  2.75383643943848      0.67409536385352     -3.24605911956067
  C   3.64932365290594      0.34358098339371     -1.62416801247116
  C   3.70849551949130      1.25367426358983     -0.61048456607922
  C   2.90072237087444      2.51809993211868     -0.57630456984889
  C   1.50516741524106      2.23734485686049      0.05493135874388
  C   1.52752408446736      1.73911911653450      1.52552344907340
  C   1.74675463641629      0.23333931003543      1.74778858164000
  O   2.73927608337001      0.04744269227747      2.76777382554596
  C   3.49529009680756     -1.09963792278704      2.72124079654695
  O   4.78254641587287     -0.90523677569899      2.07622395595941
  C   4.62912379158081     -0.39419589858871      0.83616252513786
  N   4.58091375205225     -1.29368930498127     -0.18005583944925
  C   4.20468693840039     -0.99981794620546     -1.49635356019064
  O   4.28816918409003     -1.84575539728920     -2.35835781841770
  C   4.34777656265953      0.90703878342032      0.61184178631375
  C   0.72023815817059      3.47132222463668     -0.01451359357789
  C   0.10271629406756      4.49725438923055     -0.04612210133184
  H   2.75120752591722      2.92747846068006     -1.57287733344746
  H   3.40707203965100      3.26935207120991      0.03231363642206
  H   1.00645781084983      1.48699828317699     -0.56848205661051
  H   0.57934557448572      2.02504122799007      1.97862378499913
  H   2.29846672017429      2.28199887759295      2.07448657402107
  H   2.04655031136407     -0.27030161813300      0.82602959032775
  H   0.82180588703200     -0.23564571686076      2.09236683986287
  H   2.97169896635340     -1.90431728716253      2.19294999547470
  H   3.75756603741572     -1.39540636884511      3.73277293223636
  H   4.85666333748504     -2.25137254368381     -0.00468514197236
  H   4.36782586348162      1.59191836888908      1.44348172001513
  H   -0.45422147011643      5.40327757474564     -0.07704763936271
