27
Coordinates from ORCA-job 5103optt
  Br  4.26826314330164     -0.09719014075527      2.79637920475797
  C   3.37152542237171      0.14112555428163      1.16642324097290
  C   2.57394834549830      1.19413259024878      0.94875183137970
  C   2.24630670806539      2.35621959836964      1.82919970847909
  C   2.35090381874645      3.71112906515015      1.09376748453701
  C   1.00468756472785      4.31517177103850      0.66219976703140
  C   0.20729381178449      3.43555082256039     -0.26036007756286
  O   -0.87186958232259      2.97679827768268      0.00640774208113
  C   0.82820718876170      3.13331804150263     -1.63850398258786
  O   1.60211809303772      3.90054984431669     -2.13603134813556
  C   0.39395802977474      1.82768220980501     -2.31002496121571
  N   1.51505501601899      0.90314797180705     -2.39206141333999
  C   2.14563160032767      0.46550253726153     -1.26604710321261
  O   1.92765144059086      1.31891878873735     -0.24870750954307
  C   2.92597067585134     -0.62729563086646     -1.12718117627318
  C   3.59363767928597     -0.90044230082370      0.12671953612420
  O   4.28360885573156     -1.87793775274524      0.32946009379360
  H   2.91556749729270      2.33109035040169      2.68477044592849
  H   1.23045842849668      2.21933193699467      2.21662944991695
  H   3.00658718253065      3.62099820703247      0.22656007148241
  H   2.82031779963178      4.43223548570995      1.76184963525587
  H   1.19948757793677      5.25411849180009      0.13838917084318
  H   0.37815510952297      4.51634741491816      1.53107106702012
  H   0.09112121981754      2.06959212798735     -3.32728164725846
  H   -0.45388477214752      1.40537279429653     -1.76830429605481
  H   1.52972810006868      0.26756307730101     -3.17155239443142
  H   3.07156404529593     -1.31203113401331     -1.94952253998846
