23
Coordinates from ORCA-job 5107optt
  Br  1.17297263592988      0.26475698724677     -0.38348473097408
  C   3.05121204475514      0.13723242884549     -0.20442571592164
  C   3.65918483370407     -1.10312973587650     -0.05811596525245
  C   2.87576376061325     -2.39636546593916      0.01250056545295
  C   2.45996326163609     -2.65451234433311      1.39463590437161
  C   2.16298152409966     -2.89211243070273      2.52914096208900
  C   3.70691779119107     -3.60150406230600     -0.43371365078607
  O   3.25149839995900     -4.50697208139376     -1.05690040062298
  C   5.18459319358283     -3.61423318549667      0.00119297052220
  O   5.82460400086872     -4.62556521361752      0.07673114542619
  N   5.69869698866915     -2.37292479091009      0.26999182194818
  C   5.05193730868213     -1.14557875625107      0.10071202305753
  C   5.79907835301964      0.02091240782917      0.11208851266035
  C   5.16225444243314      1.24362170358839     -0.03693981618549
  C   5.96113020830876      2.49733392780693     -0.02090222599776
  O   7.15298281687109      2.52471995702054      0.11359406274693
  C   3.78764824989242      1.31263543110780     -0.20145847707188
  H   1.99694247171560     -2.35919266228608     -0.63212012436009
  H   1.88750231049781     -3.10261297042816      3.53532718146978
  H   6.68203163877010     -2.36181233486115      0.50605610211023
  H   6.87523949480976     -0.00227940657789      0.23501493489298
  H   5.37660100698090      3.42838114577069     -0.13962575221167
  H   3.29326326300972      2.26820145176414     -0.31929932736385
