27
Coordinates from ORCA-job 5110optt
  Br  3.73925719606407     -0.58692295936566     -2.81314289957950
  C   3.23714523464916      0.02730635895426     -1.11816562395494
  C   2.32011788008995      0.99983417752365     -0.95662125923719
  C   1.63453889843949      1.73045639709315     -2.07817659036919
  C   0.58898000236056      2.76794714545069     -1.66178221920849
  C   1.11482352908190      3.98075264488388     -0.85235910736729
  C   0.72684288296070      3.87819503730855      0.60629604899471
  O   -0.41400020602376      3.88742981651307      0.98603375697282
  C   1.86641958595731      3.63115128882163      1.60655671304276
  O   2.96867883492478      4.09479097742920      1.46721220355969
  N   1.53531513544184      2.71048790319885      2.58779286929017
  C   2.47730917034878      1.61656144568095      2.68382181310465
  C   2.65359801211107      0.98733005783448      1.31381072956632
  O   3.57847804019863      0.02709884443710      1.25641529584309
  C   3.90733257781044     -0.57302249452890      0.03260926803106
  N   4.73022951183843     -1.51641435645355     -0.00891073691680
  N   2.00155431797369      1.43147207818476      0.32047503667999
  H   1.16916693278300      0.99214162487953     -2.73686051937433
  H   2.41173180679210      2.20552192511216     -2.68615801286328
  H   -0.21667845448635      2.28858468815501     -1.10287420229815
  H   0.14040799025372      3.13788367746177     -2.58359270108630
  H   0.64988483759171      4.89304704144232     -1.22950519264205
  H   2.19523823065032      4.08729983697968     -0.94241726825457
  H   0.57131898090174      2.41351647182261      2.50279696389103
  H   2.13363930385544      0.87640316715062      3.40573373993044
  H   3.45079032668223      1.98020340936903      3.01411002997402
  H   5.07987944074896     -1.75305620533890      0.91690186427134
