29
Coordinates from ORCA-job 5116optt
  Br  1.39093042910542     -0.14522700135559      1.35473471270712
  C   3.16120005197884     -0.18129161943165      0.67395076752665
  C   3.80370120677519     -1.36955859968647      0.33729906779131
  C   3.15947989781189     -2.71729065875079      0.45219530634722
  C   3.04904564815010     -3.37953972021206     -0.92404194366859
  C   4.27689545484843     -4.21000055631032     -1.27631045245692
  C   4.04588398653001     -4.76442237154024     -2.67556340219456
  O   3.42418269586750     -5.76153728675479     -2.89737042161004
  N   5.55017258233026     -3.52466943395539     -1.25711306512199
  C   6.71131256473505     -4.41901435188819     -1.29700430110738
  C   7.85989236315288     -3.45233615588775     -1.00428292269377
  N   7.22905551938608     -2.29651211433191     -0.37141390472914
  C   5.97039096309660     -2.38804697037776     -0.55745858848035
  C   5.10050052269382     -1.24675926041021     -0.16818228440961
  C   5.66229291613772      0.02362908632574     -0.29277394583267
  N   5.03394114899597      1.14372627941740      0.03661351001567
  C   3.80262725577694      1.03933897902735      0.51383181652328
  H   2.17407311849911     -2.62161837710305      0.89843705751434
  H   3.75418027574935     -3.34911545147702      1.11848034513104
  H   2.86702782776098     -2.61945328541469     -1.68872167597955
  H   2.20317414682506     -4.06732071639702     -0.94544450162678
  H   4.30887278749425     -5.06899753496055     -0.59055739347016
  H   4.46927512207920     -4.14088658264458     -3.48902462535831
  H   6.79264854838402     -4.91893952568643     -2.26304489882963
  H   6.60802926176730     -5.18749916349782     -0.51989976641280
  H   8.34538877521826     -3.11677171213599     -1.92503037618923
  H   8.62660870690339     -3.87886111694055     -0.36023223547682
  H   6.66905464105802      0.11467645128488     -0.67913023718218
  H   3.29216158088829      1.95729877109548      0.78105835927388
