25
Coordinates from ORCA-job 5117optt
  Br  1.01661085683021      0.15052433454353     -0.22068633301466
  C   2.90194977664362      0.15823938988919     -0.10669923143853
  C   3.58052766438191     -1.04272172237434     -0.02644345025995
  C   3.08207590599824     -2.46662260476855      0.02288207889881
  C   2.28583455200282     -2.77840263947723      1.20518695084738
  C   1.65741713760800     -3.03924933638680      2.18876650551207
  C   4.39702771503149     -3.28960606327210      0.03175956803590
  O   4.50838414661859     -4.48095521929608      0.01654709250849
  N   5.42908372050091     -2.37582467984714      0.05661755937886
  C   4.97667899667689     -1.05971186459392      0.01068692138183
  C   5.68817688954956      0.11979746230110     -0.01349835862358
  C   7.16429397181040      0.40214159914137      0.01419039573779
  N   7.18152594174976      1.84937003442721     -0.09872742237774
  C   5.93267278268311      2.43956124278155     -0.09714397486703
  N   5.59367321499168      3.66175006280910     -0.11179355286633
  C   4.97319565947832      1.30960351856271     -0.08144824805677
  C   3.59333554697202      1.36594658622481     -0.13109228496985
  H   2.52128526350460     -2.73367951494697     -0.87794577539088
  H   1.09264919539768     -3.27210731255357      3.05962174198029
  H   6.39253269922915     -2.66874142861866      0.05483067073692
  H   7.68816058283391     -0.07505893956338     -0.82019221324615
  H   7.62396982213264      0.05763465612106      0.94685213603425
  H   8.01994483826206      2.38640719474162      0.03531992039911
  H   6.39499263033678      4.28930471777912     -0.12086297348719
  H   3.08400048877553      2.31740052637635     -0.19372772285303
