27
Coordinates from ORCA-job 5122optt
  Br  1.36250905813634      0.36435325122498     -0.26266287046315
  C   3.18818212419621     -0.01191876030075     -0.03678468185057
  C   3.66343651703445     -1.25092955850840      0.08248120639737
  C   3.02646110692274     -2.60960029722208      0.11583346224239
  C   4.24041437671997     -3.54513909564043     -0.07362263438985
  C   4.39295476916860     -3.99646767239708     -1.52319771453917
  C   3.33486250781397     -4.98579517206593     -1.93056797501594
  O   2.50276541633856     -5.41850138934448     -1.18116261643815
  N   5.37142475601286     -2.71269780350996      0.36020830834882
  C   6.72550090259558     -3.21132757320893      0.40070652141709
  C   7.47556548369072     -3.00792297760318     -0.84712193441417
  C   8.07831617046023     -2.82821683467028     -1.86517519387568
  C   5.08619193705205     -1.38750836655425      0.25836949945648
  C   5.91676100213222     -0.31189010552699      0.30583756317593
  C   5.36331750336962      1.00876569444888      0.18586778600192
  O   5.93240168937626      2.05780081329833      0.20796632966268
  O   3.95218678633811      1.07481882920488      0.00026163468094
  H   2.27287197177024     -2.75461248369624     -0.65634299907057
  H   2.54848806577375     -2.78846203187445      1.08060055830052
  H   4.16790641553039     -4.42352569001776      0.56797840599701
  H   5.36648842562321     -4.46758737943773     -1.70054313886325
  H   4.35889471923683     -3.13789199798863     -2.20472455202126
  H   3.36489524430813     -5.31377348679963     -2.98644042670976
  H   6.68995620991969     -4.27563347397485      0.64079049753145
  H   7.25671122220528     -2.71716820839477      1.21851938942272
  H   8.61789739414203     -2.65824593012192     -2.76663190834659
  H   6.98963822413192     -0.38092229931829      0.39855748336278
