26
Coordinates from ORCA-job 5123optt
  Br  1.38502939460956     -0.45728668036495     -0.08568814388772
  C   3.21631489858164     -0.08767677978237     -0.09522121380155
  C   3.77694879193679      1.12879079887115     -0.05412211655730
  C   3.40278260473969      2.53160594621407     -0.02543261886117
  C   2.03183195379150      3.13682274308405     -0.03820505167672
  C   1.80257998077415      3.95976002186270     -1.30112428203595
  C   1.78015025659444      3.12188241500205     -2.54768712250594
  O   1.88268173618459      1.92502858069633     -2.55607448663884
  N   4.47513998130283      3.26411633193832     -0.03164039120138
  C   5.62065805115761      2.45572387319009     -0.05077704085005
  C   6.99311354815069      3.04784955239513     -0.03719977956863
  C   7.31359692070773      3.69834378715541      1.23512407446417
  C   7.57251752069684      4.22691353532456      2.27741307661596
  C   5.24013469255923      1.16382074952236     -0.06750882378971
  O   5.99565171531510      0.04471245385683     -0.08679186893515
  N   5.39600769668388     -1.16916910410075     -0.13853813362811
  C   4.11328694472930     -1.22505804241719     -0.14433416242334
  H   1.93247198121964      3.78703554027253      0.83227498271520
  H   1.27598538197660      2.35812047750149      0.03718712264057
  H   2.58804424433293      4.71326300450303     -1.41747911404640
  H   0.85708586254082      4.51090996186374     -1.25932332612576
  H   1.65759104163332      3.67611968629616     -3.49772629593597
  H   7.08011732865289      3.78303298927667     -0.84114445337814
  H   7.72540302682549      2.26235588097012     -0.23354653727817
  H   7.79778686188986      4.69605344790964      3.20473829477058
  H   3.71308758241281     -2.22907117104118     -0.18817258808047
