23
Coordinates from ORCA-job 5124optt
  Br  3.55313944562666     -0.56990364217780     -2.86275786881395
  C   3.32163377957347      0.53480881159787     -1.30924992614955
  C   4.08827197107384      1.78691364688335     -1.32778425383871
  C   3.63012471148317      2.96892048435997     -0.56819443249751
  C   2.31834481222892      3.21004491103219     -0.54554425224168
  C   1.57565624052384      4.07876310385084      0.36261428505485
  C   2.17432450380990      5.33241893883239      0.93452162749375
  O   3.30661539621248      5.67473519235657      0.74385767258428
  N   0.37491304052930      3.83701582236646      0.74220006437257
  C   -0.26009128311444      2.65120237812099      0.35337953306431
  C   0.20385558377894      1.41584584062196      0.56772852739389
  N   1.37223810007303      1.17867645023139      1.32302019658738
  C   2.56835818018509      0.68853807277017      0.87670712789150
  O   3.56037529295714      0.67554527652136      1.56204150427989
  C   5.20757477949263      1.85055844860212     -2.04803996336460
  O   6.17445155780069      1.94737750437040     -2.64758982331741
  N   2.53942467542264      0.12339833468479     -0.42027823393061
  H   4.34045885214657      3.54622507486998      0.00859981433164
  H   1.68015295663552      2.57853995114345     -1.15286554871728
  H   1.47189486479467      5.90550828333234      1.56360511025320
  H   -1.25009245864984      2.78146894095253     -0.06795632592625
  H   -0.36469482956304      0.54981218548228      0.25418044527872
  H   1.47206982697882      1.68958598919436      2.18980472021155
