27
Coordinates from ORCA-job 5125optt
  Br  0.25381721660946     -1.57238448525191      1.41976694073383
  C   1.46779857217652     -1.16232831891278      0.01496802405914
  C   2.76949601950600     -1.66276363763383      0.01870961050032
  C   3.10788693419397     -2.95564599067326      0.70525468769743
  C   2.79533540604258     -4.10363993299994     -0.28366615864429
  C   1.31553099584111     -4.27495174593439     -0.67277208836019
  C   0.81832252121133     -3.23428124454056     -1.66990242304455
  O   1.47371895861081     -2.84512482979780     -2.59747381276419
  N   -0.49513192991841     -2.77602641253139     -1.45953008689224
  C   -0.96789342396181     -1.46038904499966     -1.60923128887304
  N   -0.30964724320770     -0.37917641131414     -1.47607559563998
  C   1.03486245290138     -0.46185353697460     -1.11459136480380
  C   2.00817454867571      0.05396552259267     -1.96080591620862
  C   3.32756695088225     -0.28749054219343     -1.72545288287984
  N   3.68874511202473     -1.18913136862149     -0.82083193377720
  C   -2.38645933892367     -1.39196661768562     -1.85790145717129
  C   -3.56847789982276     -1.37568786404638     -2.04337627728007
  H   2.55497966675809     -3.08969408586841      1.63314036262559
  H   4.17453358417677     -2.96880861723424      0.92465994718190
  H   3.13655651593934     -5.03984998953252      0.16092387425393
  H   3.37490504431521     -3.94392052974116     -1.19466065699570
  H   0.68147374998543     -4.28288779618731      0.21498815431636
  H   1.20457416675782     -5.24487659591819     -1.16610611904117
  H   -1.09151651653614     -3.35577511107772     -0.88543707278971
  H   1.71219330261183      0.63433918707382     -2.82291671291137
  H   4.11945463484388      0.11738793280716     -2.34505429213390
  H   -4.61880000169386     -1.34103793280273     -2.21262546115725
