25
Coordinates from ORCA-job 5127optt
  Br  2.02285338923433     -1.27374143102954     -3.06459611301052
  C   3.11327497400090     -0.59803921282681     -1.70276037909991
  C   3.01486213547050      0.67390337683859     -1.30381759240262
  C   2.15682902617056      1.78261917306264     -1.74439601509545
  C   1.31205137683008      2.18400413174832     -0.78392096153149
  C   0.47560995732177      1.27010146969368      0.05594426268551
  C   -0.96359397268126      1.74809328760175      0.14220501271279
  O   -1.89117639872232      0.99390706036412      0.17002590473329
  N   1.49713576805464      3.48797630943693     -0.27162604555380
  C   2.69095272690415      3.53443272929454      0.18647742422257
  N   3.69472168759054      2.55612705278058      0.22861683599909
  C   3.83821348527266      1.19754497583398     -0.17113050576136
  C   4.72736202997279      0.41404042698660      0.46232875377536
  C   4.95058518987659     -0.96607961449200      0.04670827339706
  N   5.79604766244799     -1.76158590710815      0.55998013877462
  C   4.09223799394030     -1.53833660000419     -1.08894350611324
  O   4.21382171939607     -2.67078243089750     -1.45614505452323
  H   2.70253745845727      2.57626540176675     -2.24872179363839
  H   0.85541111348006      1.27439676141036      1.08682238089904
  H   0.48265450619916      0.24911386815051     -0.32254551401262
  H   -1.10381335741233      2.84243630174265      0.19898664892845
  H   3.02883072941680      4.44890982647511      0.66641212517011
  H   4.47064410418179      2.85486532887121      0.79962884243782
  H   5.29107908392248      0.77774102661639      1.31484016396524
  H   6.31886761067445     -1.30491331231655      1.30962671304169
