21
Coordinates from ORCA-job 5131optt
  Br  0.78915444580654      0.29252539349218     -0.14245629381425
  C   2.62948699903826      0.55847999604413     -0.44722992374990
  C   3.08071230337122      0.91367850852000     -1.66195976897704
  C   2.29234605614721      0.93689549675928     -2.88746426505494
  C   2.53672932593550      1.75020741829060     -3.92451165262237
  C   3.48640499147810      2.84721525244679     -3.86454307886802
  C   3.16142436555889      4.08957098212850     -4.64813668157192
  O   2.24121433709012      4.15490553921922     -5.41129830475094
  N   4.58150315633737      2.96067495902066     -3.20005768147644
  N   5.16685118241250      1.91634905398719     -2.56706656548652
  C   4.54106472046168      1.07601144977682     -1.86070306449904
  S   5.55166910531693     -0.14092688388588     -0.99476510547439
  O   6.89914698428307      0.31146509575209     -0.87242106479041
  O   5.24977499134920     -1.42814591043453     -1.54676484980532
  C   4.78329578106828      0.00275454997352      0.58715859801659
  C   3.49489227151903      0.31627723120392      0.70586049899687
  H   1.47128667325452      0.23058055278554     -2.94694493156297
  H   1.89893695787610      1.72222509604704     -4.79898950088412
  H   3.85675690285881      4.92442565385585     -4.46252853930859
  H   5.44201890751226     -0.18902152438196      1.42385436182661
  H   3.04232954132438      0.37585208939900      1.68796781385713
