27
Coordinates from ORCA-job 5132optt
  Br  0.96331420707495      0.86079677883152     -0.41375277234538
  C   2.77101388431161      0.34818820222171     -0.37606503884429
  C   3.20978633796976     -0.92344854325909     -0.33880714734462
  C   2.33157370275819     -2.12979572041124     -0.54600352965295
  C   2.18869491850563     -3.09680101971377      0.62937839306521
  C   3.51509152442563     -3.69295485718292      1.12451187034366
  C   4.31008735427449     -4.22149927045213     -0.05279815957379
  O   4.08273960308645     -5.27715650182596     -0.55901143426826
  O   5.27675370906525     -3.43769854900550     -0.60655339566262
  C   5.59755099673082     -2.18547236663418     -0.03895249969693
  C   6.88526640540823     -1.63834477841769     -0.66383277390750
  O   6.76878201396874     -0.20710067682322     -0.55714478776202
  C   5.43696704140388      0.03618345920528     -0.50204170168008
  C   4.65366576076892     -1.03255548242661     -0.31365222739498
  C   4.92454696368587      1.38764340799401     -0.59612038646205
  N   5.53428732296767      2.47041204294703     -0.77441780158051
  O   3.55780489417087      1.44115593380223     -0.40639303920737
  H   2.73375968167161     -2.67876067661121     -1.40441524737132
  H   1.33897763331452     -1.79492029938917     -0.83971320531454
  H   1.54447265789315     -3.91619055001632      0.30756934300794
  H   1.69567489411275     -2.59813029592633      1.46523505112177
  H   3.31068268008845     -4.54913298405395      1.76440759163041
  H   4.05625824336528     -2.95731693492382      1.71334501954371
  H   5.73652899469770     -2.29688106811348      1.03917195745499
  H   6.92433460654132     -1.91724541912764     -1.71958862472943
  H   7.79195595676941     -1.94563603790189     -0.15216823630720
  H   6.53142801096877      2.29366220721434     -0.86918721706187
