25
Coordinates from ORCA-job 5135optt
  Br  1.45609453151719      1.45127084989770      2.49335144090893
  C   2.24112374091809      0.82210901803321      0.89672521263089
  C   3.23460202380869      1.50921311160390      0.21674488687836
  C   3.41689611646111      2.98768415149334      0.35835702125534
  C   2.35963575886995      3.69026384658956     -0.53481003228442
  C   0.99781267426734      4.03141209642537      0.08464570768123
  C   -0.15827825397327      3.05142483142568      0.19358957612645
  O   -1.18911621205640      3.34778529610100      0.71497441475406
  O   0.06259418652639      1.81684982888519     -0.35611717858216
  C   -0.70511917757592      0.72738934511126      0.06327185187514
  N   -1.93904478031901      0.66976442354167      0.20405085135958
  C   0.17662188954042     -0.50680792848081      0.36410474172972
  O   -0.30113515043039     -1.56425210482909      0.61974691234222
  C   1.65625146403006     -0.23022141268695      0.20821032773540
  N   2.25865288177036     -0.81366110613668     -0.81621095797394
  C   3.41429760870068     -0.27251159972394     -1.19070489098469
  N   3.86147345977374      0.90954153461057     -0.79920238823764
  H   4.40931447759873      3.24024068659369     -0.00975986920095
  H   3.33031442695156      3.31974703218861      1.39243048928154
  H   2.23109344282882      3.11498715032605     -1.45390016913387
  H   2.79069728564499      4.64570494217390     -0.83658326875827
  H   0.56701370988293      4.86938775245213     -0.46906499639541
  H   1.12417050637425      4.40335423511353      1.10457201921769
  H   -2.39634845084622      1.55656826538357      0.00126485662044
  H   3.98638183973588     -0.80024424609251     -1.94468655884563
