25
Coordinates from ORCA-job 5137optt
  Br  1.07512815928354      0.15202646832468      0.22723041497253
  C   2.95632556557430      0.05379626550574      0.01763033241648
  C   3.57298762299221     -1.19598576927138      0.04959633034627
  C   2.84981391793138     -2.50457401156805      0.16305885956027
  C   3.68342344893209     -3.58642563233574     -0.49570297405095
  C   3.11100215219535     -4.97907237717834     -0.33825048947776
  C   1.84917717679187     -5.20075360548002     -1.12616781281506
  O   1.33341769005406     -4.36831190171013     -1.82019630296039
  O   4.99303648087447     -3.63555052878054      0.08272752219878
  C   5.72018799186227     -2.50000006499077      0.15964794585818
  O   6.87588999119723     -2.54350151545465      0.43377291580285
  C   4.96452926702245     -1.20347659127626     -0.03772844499141
  N   5.71798438782417     -0.12073648597091     -0.20745035239622
  C   5.10238978069336      1.04240670531544     -0.27938738152369
  C   3.71834508087971      1.20043400312202     -0.15236651697643
  C   3.15608840956243      2.58122846579465     -0.21713538762370
  O   3.84748289256538      3.55277206317882     -0.35263977067559
  H   1.88255202575657     -2.45417340689864     -0.33448319735916
  H   2.67481057045164     -2.75389072998952      1.21524835607878
  H   3.78142151075896     -3.35739344251664     -1.56155913206873
  H   2.91325913550394     -5.20669768646245      0.71446466351966
  H   3.84638959500845     -5.71920445484113     -0.66909052569506
  H   1.40667322854862     -6.20991048047699     -1.03638118927208
  H   5.71024781406856      1.92636346124759     -0.43392942160808
  H   2.06243610366695      2.66863125271326     -0.13590844125950
