23
Coordinates from ORCA-job 5138optt
  Br  3.14911561146581     -0.97964474029789      2.54882266539937
  C   3.59346231943673     -0.28139709427158      0.86828208325483
  C   3.41099167249050      1.01405401096705      0.60141938765717
  C   2.82916859533655      2.13745553403030      1.34673816841847
  C   1.62057453326987      2.53940623145735      0.92467922063100
  C   0.53523612244321      1.61428823104293      0.47540154819298
  C   -0.83841517191614      2.09771602424617      0.88344189254757
  O   -1.03602951746339      3.10764055335855      1.49450916301107
  S   1.63250056190627      4.18322959930303      0.31287011525446
  C   3.19037945973603      3.93999841321375     -0.61518680262154
  O   3.90145596095575      4.87828660867041     -0.80809660363452
  N   3.48652472492574      2.69306864130954     -1.21846813217545
  C   3.65317472553385      1.50682396341855     -0.78019267385141
  C   4.07693498871495      0.48016828107761     -1.76567480973137
  N   4.29332673261402     -0.73803526116902     -1.49007908414377
  C   4.10224984022447     -1.21402705173725     -0.16569278624045
  N   4.34477276315824     -2.41967816595717      0.12399447281091
  H   3.53683253509126      2.88864923279819      1.68567337850502
  H   0.67507879293604      0.61130034416549      0.89156185732268
  H   0.52654074878502      1.51119280565901     -0.61786949268539
  H   -1.67595858628141      1.44663651841711      0.57395870552998
  H   4.22430438576299      0.83079831392669     -2.78447293333857
  H   4.67977820087362     -2.90093099362884     -0.71261934011307
