23
Coordinates from ORCA-job 5141optt
  Br  0.98121045535661     -0.28861820301277     -0.14555582889321
  C   2.85343137651601     -0.16921440691500     -0.04841564220441
  C   3.56082898586851      0.97095397738085     -0.08520411419702
  C   5.02633411185354      0.99706874929632     -0.02557291332491
  C   5.74173751869475      2.14377929882114     -0.03668353912040
  C   5.16878070866328      3.46217402599358     -0.09463509023894
  C   3.86545067958379      3.73508360976222     -0.16817514575226
  S   2.63741098560540      2.50869245127502     -0.22622679994761
  O   1.81362573133958      2.63297109122170      0.94278165698152
  O   2.02541715806785      2.53774782296461     -1.52464339158375
  N   5.75245083146749     -0.18881071430242      0.04354257259850
  C   5.24889162307094     -1.34891471491585      0.09246830921558
  S   3.53914152067633     -1.75724424462905      0.09304695727339
  C   6.12415378180929     -2.54824833311164      0.13074568750269
  C   7.15600254425743     -2.65740812059884     -0.93921660320729
  N   7.53006531199555     -2.36273669338726      0.42744645823874
  H   6.81689155394931      2.04835492024810      0.00789894647822
  H   5.85641107946409      4.29946445169264     -0.07478738364016
  H   3.44698966519994      4.73197157673153     -0.20863400080991
  H   5.67141537638995     -3.44842356232477      0.52922188261531
  H   7.17614351345441     -1.85184072885086     -1.66299579623810
  H   7.43216074386650     -3.63921443319429     -1.29925352854393
  H   7.70505474284939     -1.36558782014496      0.53184730679797
