24
Coordinates from ORCA-job 5142optt
  Br  7.11351252509879      0.45177011728044     -0.03305941403683
  C   6.17679252310244     -0.32022970312844      1.40964295514419
  C   6.93442134447304     -1.06680231225010      2.48720282061573
  C   6.11259901291560     -1.81056991201538      1.56874812590720
  C   5.63753447986474     -1.65233864747092      2.99810462845013
  C   4.63051524272808     -0.56102536676167      3.14757085611484
  C   3.79122635854557     -0.24697822170303      4.13226342287354
  S   3.53972943375086     -1.09628208413873      5.67292175685063
  C   5.23904825247194     -1.46114753582105      6.05034484840104
  N   6.10496174753686     -0.54484145441731      5.97219016293927
  C   7.36313690541152     -0.94890284502076      5.50223733595908
  C   7.80442998719068     -0.21279770578752      4.48028297643003
  C   8.23200447196366     -0.87398043507644      3.21664167555709
  N   9.38568690068465     -1.22780679787193      2.86225762949219
  C   4.94106533377225      0.32508459694182      1.97597929062047
  N   4.39605692541587      1.35677814745777      1.50931940335326
  H   6.19800417663965     -2.62249771161479      0.86655247088336
  H   5.68617635168889     -2.50528890237100      3.66032502121836
  H   3.18500382101109      0.64790201378471      4.04181532853621
  H   5.48407561005496     -2.52579778349325      6.12295273987608
  H   7.70789173310911     -1.96589392772172      5.68897635383714
  H   7.30848841039426      0.74412724890979      4.33506083290236
  H   9.35895872326184     -1.69193465186232      1.95308092513484
  H   3.56667972891358      1.61845387415184      2.04358785293973
