22
Coordinates from ORCA-job 5144optt
  Br  3.58392170455154      0.42849118052854      3.48819170320913
  C   3.61375007556456      0.24751366191919      1.61872734259401
  C   2.73636748854983      0.92336090196315      0.85387529930776
  C   1.75077041572807      1.89408018081997      1.34950103400176
  C   0.43765949280089      1.76814339437430      1.19206865133195
  C   -0.42097530596162      2.96028243551559      1.18188289379565
  C   -0.18433602490952      3.93782567303023      0.29211341565115
  S   1.16358855060914      3.90778404322197     -0.87692737435733
  C   0.92640880544188      2.17532289493602     -1.47707115347160
  O   -0.15345277960547      1.81483167924759     -1.82822192062125
  C   2.12746252889857      1.31443465441736     -1.59057506659585
  C   2.84442906409493      0.76462889320853     -0.59628421293369
  O   3.81557665113373     -0.13084895966612     -1.01420402028264
  C   4.60844025753233     -0.73926643484045     -0.12929946865914
  N   4.58022888900955     -0.60860766399933      1.13128524926857
  C   -1.03712273289182      5.08766432613194      0.23478877003708
  N   -1.70830860830896      6.01802145112338      0.19792580270609
  H   2.15163175797710      2.84495578815469      1.68884283093871
  H   0.00033825880962      0.82978285968510      0.86014646698130
  H   -1.29971031532263      3.02962322768035      1.81311198632985
  H   2.31218422245621      0.94172740042424     -2.59069044871132
  H   5.31914760384203     -1.39375158787628     -0.61818778052021
