26
Coordinates from ORCA-job 5152optt
  Br  1.31571228194314      0.82878906939539     -0.62105418814011
  C   3.03359714438629      0.22536054165786     -0.11180071619528
  C   3.31576617219720     -1.13976166483136      0.00153995362881
  C   4.58103852590088     -1.52232886543905      0.46065420369093
  C   5.50350127147793     -0.51257250583067      0.71483455424915
  C   5.12698782392779      0.80487160808511      0.52773816374067
  N   3.91093431386724      1.17116090635493      0.13507505259585
  C   4.96410366786290     -2.99030278682772      0.58400060034409
  C   3.75575000713757     -3.84444706004075      1.00819018318883
  C   2.98439185511817     -3.88741167038097     -0.30441387434775
  C   4.06827303599741     -4.05156531529486     -1.36796032853767
  N   5.30223903231054     -3.57577564360556     -0.71414598074191
  S   2.07829617567584     -2.35133189026131     -0.46320980523626
  O   1.75035657389223     -2.16511596076329     -1.84785664529195
  O   1.04991560678642     -2.36379913914859      0.53705510019077
  C   6.07968227509071     -3.29450619807522      1.57359077993603
  O   6.42834429961029     -2.59296570254078      2.47616146037504
  H   6.49383246136021     -0.74217250314934      1.07513410686579
  H   5.82959474263986      1.60893628303394      0.71302263128975
  H   3.19867683335160     -3.40898116335918      1.83574164054897
  H   4.08518653390232     -4.84869601525932      1.28057595628114
  H   2.19764798575980     -4.64053758575101     -0.34500502051190
  H   3.82367195830919     -3.49510162655476     -2.27295540929171
  H   4.16769881597333     -5.10539685809666     -1.63137069498106
  H   5.82614779553061     -2.93492497403553     -1.29501212709439
  H   6.52065280999049     -4.29442327928124      1.39847040344415
