25
Coordinates from ORCA-job 5153optt
  Br  1.42000689495596      0.54122250112472      0.06135513997246
  C   3.26483042756091      0.10697096700975     -0.00054233213578
  C   3.74766563876578     -1.20333000429616     -0.01638459205284
  C   5.13848484477002     -1.34397741642930     -0.05540149199597
  C   5.96704055249124     -0.24130055216936     -0.07585376104693
  C   5.36558142510329      1.00709869167860     -0.06265060777890
  N   4.05007336781646      1.16667713660351     -0.02552206773880
  C   5.60412751067653     -2.77931750668738     -0.04575581031551
  C   5.10856927252559     -3.39531041707917      1.26293976251706
  C   3.59304931459561     -3.30466593871824      1.26033323532092
  O   2.89560812923485     -3.74602781166825      2.11879381860079
  C   3.02698695728265     -2.56138519442445     -0.00402616695965
  C   1.57953421393283     -2.61881087812345      0.00200811357178
  C   0.40357262931470     -2.83169739619173     -0.01586494763585
  C   3.58824008439952     -3.31965720412479     -1.24936699333397
  N   2.94387679012977     -3.70765535675090     -2.25907017530716
  N   4.94800641571727     -3.50282446047629     -1.12638961336151
  H   7.04377641700881     -0.34516793521455     -0.10455964734816
  H   5.95645041638897      1.91555952136368     -0.08107246710487
  H   6.68240339782087     -2.86142826431853     -0.15553842711796
  H   5.49222398526666     -2.87302725729823      2.14038491914066
  H   5.38226278198189     -4.44816274189446      1.33118633125401
  H   -0.65199202413013     -2.96540083278361      0.00123102032968
  H   1.95052680442240     -3.51367998082362     -2.16286770045766
  H   5.44309375196751     -3.65070166830776     -1.99236553901584
