27
Coordinates from ORCA-job 5154optt
  Br  1.35814404950967      0.62587211954118     -0.46754107232068
  C   3.19820198808875      0.20500701350168     -0.23851613172096
  C   3.67022976190464     -1.10196685214279     -0.12534104932160
  C   5.05953893123007     -1.25172930579747     -0.03975185450580
  C   5.88777453169914     -0.14513362877831     -0.02331444756875
  C   5.29189740296545      1.10165800969151     -0.10853467511578
  N   3.97995777281280      1.26601890637804     -0.22531434083044
  C   5.51988402789321     -2.67623281898461      0.00241619104837
  C   4.83073080014238     -3.34266881642987      1.19613812414454
  O   3.42618492308242     -3.10449526739703      1.14506711920790
  C   2.97991281007435     -2.46437375629045     -0.05685778674326
  C   3.45549132534423     -3.31644423923720     -1.26109699355016
  C   5.00047980806533     -3.33297939454229     -1.28636107649304
  C   5.54274676984932     -4.72506480958680     -1.50081513590386
  O   6.44699476469741     -5.20518379501430     -0.87763155883622
  C   1.52023910532749     -2.51755569645109     -0.00183807477428
  C   0.34235436960070     -2.71829077167331      0.02160107800344
  H   6.96225251920362     -0.24899410078243      0.05002116965554
  H   5.88544224094193      2.00861884040297     -0.09445501232605
  H   6.60116576686761     -2.76747432983375      0.08452105079510
  H   5.20555662953308     -2.92917950086738      2.13375737807215
  H   5.01419064408031     -4.41919519430736      1.18809940826269
  H   3.03159067471086     -2.91551001902547     -2.18027075817643
  H   3.04599899537469     -4.31742825674019     -1.10940739498515
  H   5.35070580683560     -2.75380239631723     -2.14823928862790
  H   5.04741368960832     -5.29822787920652     -2.30988118389334
  H   -0.71308010944342     -2.84824406010949      0.05454631650399
