26
Coordinates from ORCA-job 5155optt
  Br  1.18981758990600     -0.75950887047971     -0.02236757905280
  C   3.04505242523082     -0.34123058984368     -0.18603573529316
  C   3.55711132344568      0.93780589048573      0.06385895504029
  C   4.95699764542791      1.03020446010202      0.07436527323626
  C   5.72113949840286     -0.08080622709022     -0.24382491772917
  C   5.08441551201068     -1.27076183470501     -0.54438618183048
  N   3.76697926341960     -1.39783436983345     -0.49212018064603
  C   5.66558019371523      2.31264332003253      0.45209796374349
  C   5.35188498070869      2.78914874444735      1.88107147512925
  O   4.13744327824938      3.47794767590322      1.98489653568085
  C   2.97539001973759      2.72068425495058      1.80111747637661
  C   2.77281712631083      2.21313009874817      0.35930866926423
  O   3.08201560055383      3.23956861132818     -0.59894681101080
  C   4.31593427767771      3.73105079950962     -0.86807904983722
  N   5.46109026777274      3.38899000588205     -0.49303226198726
  C   1.25234553055720      2.15328299983506      0.06832652943166
  O   0.41740608115576      2.43265402794656      0.87275837675845
  H   6.80102220992829     -0.01637411874010     -0.25588332204155
  H   5.64335437708916     -2.15798977404749     -0.81793332551724
  H   6.73379427156414      2.08679304463448      0.44714924663470
  H   5.37759478265812      1.92839751715027      2.56202666427764
  H   6.12000001620887      3.50095843889481      2.17965905871712
  H   2.14555093812390      3.37675582966241      2.04889974051259
  H   2.94523544458294      1.85347028752381      2.47337276820169
  H   4.20170321446103      4.55168429575788     -1.57039862634787
  H   1.02132413110098      1.96433548194491     -0.99190074171122
