25
Coordinates from ORCA-job 5156optt
  Br  7.40423255685397     -3.19188460940559      1.46003644834409
  C   6.34331865812077     -1.64015458479433      1.60761953565645
  C   6.93859841857759     -0.41590783461746      1.88441673238652
  C   6.16493025202614      0.72876214257621      1.90042364723915
  C   4.79760358477145      0.61053837308955      1.70113755201907
  C   4.29514452054073     -0.66223137093854      1.48195032127099
  N   5.04977907733818     -1.76290580936951      1.42284790544910
  C   6.94550670017106      2.02094816156457      2.07147156709938
  C   8.26358832898866      1.62433908481563      2.75376388842236
  S   8.64730185727136     -0.02919776182491      2.16937120788630
  O   9.20553567216181     -0.79800613291374      3.23948958119806
  O   9.31298062163792      0.04310026179230      0.89990914376537
  C   7.15261048849749      2.72135025139140      0.74282896718322
  C   6.65778669087809      3.95262490026244      0.83692978639615
  N   6.10963835195108      4.19312775277680      2.09516533231299
  C   6.18320367080840      3.07489031436913      2.89464411419913
  N   5.69028859642156      3.00693884467028      4.05582576282598
  H   4.14632136091337      1.47443377431306      1.72078050651888
  H   3.23262392104334     -0.81589354780167      1.33651329514170
  H   8.14184251070068      1.54523571463750      3.83448116593135
  H   9.09682690450229      2.27783216346265      2.50567762547356
  H   7.65348847673807      2.27121890006501     -0.09833431423700
  H   6.65012484760616      4.73369198178189      0.09319792157464
  H   5.63122040234367      5.02840850505185      2.38464194006887
  H   5.83550352913608      2.09174052504546      4.47621036587368
