22
Coordinates from ORCA-job 5157optt
  Br  1.77296123365617     -0.63244810891446      1.01002328732926
  C   3.25109900405966     -0.19515591981082     -0.07717603863218
  C   3.71366321559292      1.10638701010246     -0.14670852924662
  C   4.86822514224680      1.36099484636037     -0.87365557079380
  C   5.50832463314921      0.34122578822302     -1.54367268965379
  C   4.91661893209464     -0.91722086635753     -1.45889266181812
  N   3.82860620665873     -1.17892926052791     -0.74128359639415
  C   5.21575532802827      2.82685890771026     -0.66573417185623
  N   3.93298941381768      3.45719496133686     -0.33276633357272
  C   3.29200100572343      2.42777584466487      0.50587877497411
  C   1.85745949669141      2.66686936035800      0.62647831844942
  N   0.73941424426380      2.90693524628232      0.65413260375286
  C   3.99445405191748      2.50722838364989      1.87799418536329
  O   3.44379614906992      2.34678723001555      2.92407997839388
  N   5.35834718049025      2.74511289327143      1.76763245168077
  C   6.07981120849582      2.91088693757941      0.59091131588155
  O   7.26736429046523      3.06621986037609      0.58412940880952
  H   6.41747131754539      0.49556131341325     -2.10765223319605
  H   5.34732627151244     -1.76111237301606     -1.98459038507508
  H   5.73275183392924      3.31772199113372     -1.48437422676724
  H   3.37926725962625      3.58921744321326     -1.17437392866620
  H   5.88229258096520      2.77088851093600      2.63462004103753
