25
Coordinates from ORCA-job 5162optt
  Br  1.76877789771665     -2.33051107051558      0.80806486978493
  C   3.42383879306307     -1.73563240973406      0.12806682471557
  C   3.75013085119671     -1.47518381499550     -1.16843547025682
  C   4.96289068868065     -0.68995374332683     -1.34812074939894
  C   5.91692027288435     -0.57764318347991     -0.39472459462989
  C   5.72691112922154     -1.44662443043846      0.75072605462227
  N   4.34756007586709     -1.52769374785107      1.08652613042257
  C   6.54429884485347     -2.38832367371718      1.28870052316568
  C   5.93683556815747     -3.74539978262262      1.30233146958458
  C   5.39588688092845     -4.06137030191160      0.11064031216523
  C   4.42494011191705     -5.07952328943063     -0.30361014456374
  N   4.04638620893837     -6.09314200136529      0.32704980909285
  O   3.95792779441605     -4.68717085203280     -1.58389416526952
  C   2.65251937928140     -4.30773454761003     -1.71734307422605
  N   2.28089360035197     -3.18876876068168     -2.13007005562526
  C   3.13924119551630     -2.09579982725029     -2.37314664485957
  O   3.37872618515601     -1.71115430663451     -3.48655167083747
  H   5.11027336219165     -0.26365831075768     -2.33273602702657
  H   6.86009405494490     -0.08517616307443     -0.58681293059459
  H   4.12753551883420     -1.81017231745006      2.02860447945845
  H   7.61839038629193     -2.25377353982424      1.32478398928223
  H   5.90660836303223     -4.41064228740953      2.15890798164932
  H   5.59763076202574     -3.38139300504480     -0.70460327325318
  H   3.35611752155326     -6.64114517392346     -0.18256515291838
  H   1.92066455297941     -5.06840945891773     -1.44978849048369
