27
Coordinates from ORCA-job 5165optt
  Br  2.25944366796165     -5.76807313285827      0.38039866178981
  C   3.73306332212025     -4.91166383332332     -0.42315672907606
  C   4.56190051162687     -5.50259992414083     -1.30363533512365
  C   5.51976607174312     -4.58781800483278     -1.93100401633933
  C   5.86945565370478     -3.41464529524984     -1.36425079601437
  C   5.34028728942225     -3.24963943175637     -0.00980253416585
  N   3.97953197239500     -3.62432956525388      0.04114066028252
  C   6.15387806603153     -3.31978490917498      1.08265633564008
  C   5.84027702821939     -4.55782940380918      1.78334290081052
  N   6.68726516445608     -5.52613640322837      1.72902666979530
  C   5.95885438271477     -6.61974273538939      1.21424578467271
  N   6.35584243957684     -7.13754494637557      0.13416275646499
  C   5.46446912225125     -7.72884684182032     -0.76819542490171
  C   5.67131626719522     -9.21206729667039     -0.95959076941792
  C   4.84421267566739     -9.83297321004125     -1.98597901852191
  C   4.16642247968802    -10.35556650620165     -2.82301021315467
  C   4.62681834424495     -6.97610502417554     -1.50307373920678
  H   5.99343842617070     -4.91332815819669     -2.84880396528720
  H   6.65164713920767     -2.78349729360438     -1.76193100806244
  H   3.46352439131119     -3.34588560888134      0.86175430035306
  H   7.20130181472239     -3.09080518383179      0.93540167009248
  H   4.77920500871405     -4.76478058116503      1.95426128851020
  H   4.96270740285300     -6.81949753068328      1.63714579957629
  H   5.49363076386419     -9.70822903104701     -0.00064597200406
  H   6.72894776715795     -9.37250052976144     -1.18767663672690
  H   3.56712267516688    -10.82199064943478     -3.56777100303274
  H   4.03467015181253     -7.45711896909223     -2.27200966695237
