25
Coordinates from ORCA-job 5166optt
  Br  2.03575801392888     -0.28634290070125     -1.30000038333891
  C   3.20194908940669     -1.77457140299705     -1.02503314405290
  C   4.18035479125478     -2.18472749663552     -1.94617518326072
  C   5.26556566085224     -1.13853744320183     -1.87377147739346
  C   5.69567059492707     -1.07017315193915     -0.60723813020598
  C   5.01055579723139     -1.92244445078382      0.40853036876010
  N   3.60487277091620     -2.02561030660488      0.24372609986027
  C   5.71726724482852     -2.78969039900876      1.16355365254844
  C   5.19385797538235     -4.13835713679969      1.26836610761472
  N   5.97590049326416     -5.14185634083598      1.20443773611752
  C   5.40726892802021     -6.30208021928918      0.61168775092684
  N   5.17827151563601     -7.41944047925337      1.12624816668497
  N   5.14179760878843     -6.01541125037620     -0.76995857852734
  C   3.82908103113563     -5.71239533277886     -1.11082662927619
  O   2.86065752038074     -6.34372421598703     -0.77180951978631
  C   3.62738586000254     -4.38321184570373     -1.78143368251876
  N   4.55660278572202     -3.50066056046266     -1.81773708454308
  H   5.69087864188259     -0.59289818605621     -2.70446672732790
  H   6.58937753612311     -0.54022988312289     -0.30087835212657
  H   2.99350994215116     -2.00733822602865      1.04837090710099
  H   6.78589639769694     -2.65705337316215      1.26998363340443
  H   4.11490160757262     -4.24681309383958      1.11750172889568
  H   5.39797488075851     -7.39853568703695      2.12093155757181
  H   5.75938985931248     -5.28109676082417     -1.10157426584505
  H   2.59525345282464     -4.16779985657038     -2.06143455128257
