25
Coordinates from ORCA-job 5173optt
  Br  1.58290146570024      0.52343481107337     -0.51427039217676
  C   3.44466764619780      0.16228783634182     -0.53816574656015
  C   4.38939232276602      1.19284120852177     -0.61750562353695
  C   5.71206503516342      0.81783436071420     -0.38664266302920
  C   6.05118212334513     -0.51811955600959     -0.22486530926182
  C   5.03665130484686     -1.45187942544498     -0.28990909346823
  N   3.75544876500252     -1.10804385682700     -0.41184022026551
  C   6.75260049289742      1.87092699062515     -0.15815554640613
  O   7.86387137865322      1.60369626689079      0.21595855433438
  C   6.28255511429412      3.29889841372092     -0.34454279315629
  C   5.77937858528093      3.92315520234544      0.95775687701586
  C   4.44665977349372      3.30016116643256      1.35395941701426
  O   3.54522221687089      3.29665226731271      0.25137509523256
  C   4.07473992922804      2.67441551476291     -0.88838744009444
  O   5.25550491530855      3.32092777049080     -1.31981941507514
  C   3.13535463427384      2.86043507325671     -2.00252737090809
  C   2.44426412361406      3.04858654613339     -2.95731500296788
  H   7.07971789623624     -0.79322507684134     -0.03659604517366
  H   5.23827532093524     -2.51306990594057     -0.20815072377643
  H   7.11351162929363      3.87177843672464     -0.75312554265803
  H   5.64019258339771      4.99004288794978      0.77978911961985
  H   6.51944717694090      3.79289430760405      1.74842941645889
  H   3.95499443659410      3.87946075227899      2.13180034915503
  H   4.58152571377783      2.27946723803682      1.72885586396366
  H   1.80787541588749      3.20744076984667     -3.79510576427979
