25
Coordinates from ORCA-job 5174optt
  Br  1.09177513493748      0.16386169863148     -0.14675872853294
  C   2.98362985417944      0.18218735349977     -0.01009939192149
  C   3.66525594823717      1.39436286683503      0.03168458016283
  C   5.04290221942823      1.34064073984325      0.11018371961622
  C   5.71290210589134      0.12899141182995      0.15529407315784
  C   4.92525123134691     -1.00860593397703      0.11554461855778
  N   3.59006544454082     -0.97857825931062      0.03217385252708
  C   5.59150975642416      2.72861361296182      0.15219753503131
  O   6.73249341642430      3.04031405032043      0.34779464765231
  C   4.42523056498800      3.67450130351576     -0.08081982920172
  C   4.35066236851140      4.84782131032664      0.89312039894374
  O   2.99817228830121      5.26761322303525      0.93517357179972
  C   2.20751223623320      4.35710913064498      1.63291885156429
  O   2.54501833906185      3.01173226444849      1.32880935091815
  C   3.14283840928934      2.81746702044898      0.06125718653630
  C   2.14539390663764      3.10323356743256     -1.06596888526185
  O   2.47683511037638      3.17406282548615     -2.21213153245933
  H   6.79111185474383      0.08121644143983      0.22203968848092
  H   5.36941098027304     -1.99574605062166      0.15183553604401
  H   4.49461488155548      4.03425011627918     -1.11069673536218
  H   4.94576908206536      5.69169707446334      0.55621910383928
  H   4.69149402472047      4.55352743345073      1.89137950491832
  H   1.17147594258672      4.57329441695592      1.36675234050945
  H   2.35342860651880      4.44821739526328      2.71356698310706
  H   1.10024629272738      3.24921498679644     -0.74147044062709
