26
Coordinates from ORCA-job 5176optt
  Br  1.14535343813594     -0.46561621736279      0.05007238418106
  C   3.02238085511457     -0.18578692963506     -0.02069545696444
  C   3.56107389378411      1.09911487529176     -0.05240176586423
  C   4.93773267493333      1.19439864972748     -0.12348945179977
  C   5.74433682982310      0.07085763741795     -0.16317401666376
  C   5.09353037648644     -1.14955002545795     -0.11715078476054
  N   3.76414035741657     -1.26780319166267     -0.04425915794994
  C   5.34049235877875      2.63101811137993     -0.14531842566545
  O   6.44994987397226      3.05602937780453     -0.29354167923362
  C   4.07375993939155      3.44275933267865      0.08978022361761
  C   2.89726012071117      2.46371828395391     -0.10775108827255
  C   2.19002302849842      2.67214855268588     -1.46478130872636
  C   3.13490581435226      2.62209425345950     -2.57299445968044
  C   3.95535950376678      2.58161755988783     -3.44369743348063
  O   1.93276924501450      2.52816517175767      0.93742841505658
  C   1.33000898984565      3.72088069978822      1.16975665779795
  N   0.34589722357246      3.87334491710244      1.92729252550819
  H   6.82081000320164      0.15098520416562     -0.22576692062172
  H   5.64719735781360     -2.08043041755166     -0.13998416641707
  H   4.04968474654631      4.31604699098269     -0.56002234906171
  H   4.09518474022767      3.77765931841201      1.12986765330649
  H   1.68835732133898      3.64313731552805     -1.45396984150874
  H   1.41944273104197      1.90821473676330     -1.58078510273217
  H   4.67446198239687      2.54202664761001     -4.22701018872046
  H   1.77916957801373      4.57348280011369      0.66057805156039
  H   0.04871701582132      2.98048634515898      2.32401768709532
