22
Coordinates from ORCA-job 5181optt
  Br  1.54944017375339      0.93725334950147     -1.84051299134651
  C   3.13204992007035      0.54804272763260     -0.86283019833948
  C   3.81920069015187      1.56662896243165     -0.23931729159938
  C   4.96517476885614      1.23082643992814      0.51511636495603
  C   5.37442472285901     -0.08712892228084      0.57891340795264
  C   4.61666450405469     -1.00904522420821     -0.13353875692710
  N   3.52891844923838     -0.70683306762925     -0.84214044309473
  N   5.61513372791520      2.35133444789973      1.08954349113240
  C   4.84929720378656      3.32323465599167      0.77688929565896
  N   5.00107751291728      4.67431350995141      0.68123663147797
  C   4.10774926300775      5.06876191737482     -0.31079825546149
  C   4.13902326839175      6.47261309296773     -0.80697232516514
  O   4.93264811572669      7.26200613085710     -0.37924514764573
  N   3.30976104856894      4.17631908101919     -0.77012942494016
  C   3.55702111307855      3.01198364400201      0.07989186721699
  C   2.35489325433121      3.00993981958371      1.06673975245458
  O   2.46435404723348      3.20461055178628      2.23578003671683
  H   6.24369998810093     -0.38259289070349      1.14807229465927
  H   4.89798162365417     -2.05556560187024     -0.13701917696756
  H   5.79977348208359      5.22423815959798      0.96042936934289
  H   3.39742839118255      6.70489346739034     -1.58494866818071
  H   1.39328473103746      2.82516574877615      0.56184016809945
