25
Coordinates from ORCA-job 5182optt
  Br  2.21067452585251     -3.48979168598224      1.17194925926228
  C   3.70834398918449     -2.52467788209761      0.58456812081529
  C   3.92151323877194     -2.12582416059134     -0.69253734469585
  C   5.03363160784718     -1.21810150197412     -0.89396421496559
  C   6.04704612770114     -1.09114189629386      0.00094114060241
  C   6.00117568496743     -2.09973294065668      1.03843237894921
  N   4.66230998408847     -2.27061985611392      1.51581270714206
  N   6.91611171996765     -2.96553150971974      1.28897794398182
  C   6.38148054959854     -4.26715059494352      1.13819579499461
  C   5.70026127802379     -4.45557447004341     -0.01445086277070
  C   4.76608361221743     -5.47976163631534     -0.43691124823314
  C   3.73790337676843     -5.27183787053284     -1.30047122153863
  N   3.25659141807473     -4.15874250751424     -1.96946563380832
  C   3.25592558170274     -2.75298273752686     -1.85594709582384
  N   2.70167133466512     -2.13566734894708     -2.81713091297650
  C   4.85381634811814     -6.78241437982623      0.15188368573950
  N   4.95112620724339     -7.81003029560443      0.65647177143577
  H   5.10397641118118     -0.71796593438076     -1.85305254394702
  H   6.95160431067673     -0.54306869846042     -0.21803263293180
  H   4.58358273139235     -2.77328837819727      2.38944355696929
  H   6.54404499863002     -5.02812977658045      1.89357268842751
  H   5.78277916358919     -3.65296711527128     -0.73241182420671
  H   3.14925490522036     -6.14559384284262     -1.55275942954359
  H   2.63042286807045     -4.40316087607708     -2.72505120916513
  H   2.68266802644655     -1.13524210350660     -2.64206287371292
