24
Coordinates from ORCA-job 5185optt
  Br  1.15515987246887     -0.28407962835513     -0.06421720993731
  C   3.00762703442972      0.04279591091083     -0.07036342416997
  C   3.62009034594676      1.26132613534856     -0.07259937055688
  C   5.08846191742678      1.29159443487503     -0.07581676572833
  C   5.76494968587241      0.01813195068855     -0.07805410867256
  C   5.07610893617514     -1.13395306771713     -0.07618941730770
  N   3.71274494550078     -1.12292415530438     -0.07216555770718
  N   5.83025295599509      2.35761525440527     -0.07656145890194
  C   5.27023816726393      3.62369050320520     -0.07415361912996
  N   5.97153727986034      4.68539757857011     -0.07365165174841
  C   3.78561110511766      3.75758902469264     -0.07249293466153
  C   3.19991502176242      4.96967375317624     -0.07183358550185
  C   1.75668442998844      5.09645196196839     -0.07079169694205
  N   1.02139507735297      6.13889606961739     -0.07011377468464
  N   1.11877923711634      3.85939026814523     -0.07072503968473
  N   1.66513276794989      2.66075724970436     -0.07120693086176
  C   2.95838092181171      2.57062425433727     -0.07192275027749
  H   6.84423101070368      0.02385520594197     -0.08109730004836
  H   5.53772780952603     -2.11042905194195     -0.07770930246157
  H   3.19548000767232     -1.98701493525287     -0.07034534193727
  H   6.95727328808552      4.42538480758537     -0.07520726038419
  H   3.81362943550989      5.86114201652350     -0.07221610113777
  H   1.58798362782051      6.98070601869136     -0.07029920519950
  H   0.10860511864277      3.87637844018416     -0.07026619235707
