24
Coordinates from ORCA-job 5190optt
  Br  1.61255838923622     -1.43490690860010     -1.21505977043286
  C   3.43917743961158     -1.25235559323827     -0.90423535310291
  C   4.40766312074005     -1.40950323020706     -1.87017686887188
  C   5.70025202773546     -0.95519280706434     -1.49567696390172
  C   6.08869985811100     -0.89744657539203     -0.17642966464444
  C   5.13828297614042     -1.36511205422337      0.74450525467621
  N   3.83499391477482     -1.16283126218390      0.38975100748693
  N   5.31510560000551     -2.25960411572375      1.75948904330190
  C   4.83217611976963     -3.41093857590365      1.30204108784119
  O   4.24140028164069     -4.25083580387367      2.24544661079756
  C   3.10197468880853     -3.81051139911928      2.79814747244862
  O   2.46280040941984     -2.87124264798465      2.42306718354008
  C   4.84775297818195     -3.79454019954296     -0.04217221164015
  C   3.72489526202838     -4.28994680665520     -0.74393745186175
  N   3.45751783080925     -4.14854219664499     -2.00493116495990
  C   3.92355534868311     -3.35629660560926     -3.00098791383813
  N   4.23819034378076     -2.09191124961407     -3.06029965151767
  H   6.43840781169433     -0.86181388472087     -2.28291381931935
  H   7.12789131369176     -0.81609738086481      0.10808284303746
  H   3.15656807299315     -1.45485408622511      1.09784639166946
  H   2.81554792153586     -4.46094846701435      3.62998699730267
  H   5.59681968377492     -3.30395859434307     -0.64213569147698
  H   2.95186191636734     -4.79706707315634     -0.16359469924555
  H   3.91890669046537     -3.85554248209482     -3.96781266728881
