26
Coordinates from ORCA-job 5191optt
  Br  5.31356266783462     -2.68664018716751     -1.08989317991733
  C   6.96650239900921     -2.38584428781663     -2.01685713131929
  C   6.94765844886008     -2.23558062746287     -3.37726406970346
  C   6.03376691151001     -1.19287007616549     -3.91303536927485
  C   6.69645816020573      0.04805462402742     -3.18223136445318
  C   7.85131633574598     -0.23056871407525     -2.18662851472529
  N   7.83076584262318     -1.44276996452608     -1.49434082229372
  N   8.78519930837033      0.58846474671136     -1.94347782583079
  C   9.17766969991129      1.60446626482152     -2.80753585304078
  O   9.25740615267819      2.76604602096054     -2.54085563285209
  N   9.56212985015132      1.09694484007517     -4.09983737131467
  C   10.19122099813200     -0.00118584287616     -4.11464389526893
  C   10.47838555728224     -0.71974854824719     -5.37253492012818
  N   10.59520860344344     -1.98039544223103     -5.44031853508065
  C   10.35633784338428     -2.80804804477151     -4.33807645042921
  C   9.19131209787351     -2.95450458965285     -3.70598899871788
  O   8.09627059188345     -2.23598281565998     -4.09910124017560
  H   6.07803865027684     -1.09212374500008     -4.99419264020996
  H   5.00937894087359     -1.32755819587381     -3.58544872653518
  H   5.94241722756012      0.57679395445498     -2.59588252983587
  H   7.08272802670933      0.74465122721108     -3.92276239766275
  H   8.46878277850530     -1.55804335831798     -0.71732604642920
  H   10.50504726376208     -0.51099711533185     -3.20130403240809
  H   10.58596950410205     -0.13131882688509     -6.28075874049637
  H   11.15283165506106     -3.50002035892208     -4.09552271522771
  H   9.02263448425058     -3.70322093727860     -2.94318099666891
