27
Coordinates from ORCA-job 5194optt
  Br  1.04996997157124      0.09449263542157     -0.37427338225048
  C   2.91820385874384      0.15799750443362     -0.20311107041119
  C   3.61735434702203     -0.97933779280413     -0.02921521130912
  C   3.14304070810245     -2.41017905556554      0.09232485275783
  C   4.42532861357021     -3.20485912364471     -0.24149725083967
  C   5.55306785259186     -2.31326868303834      0.28074870375852
  N   4.99014522639629     -0.97728817323083      0.09844803695915
  C   5.63272742081028      0.20632160260685      0.08753812467242
  C   4.99351400872510      1.39611700080694     -0.07955075312010
  C   6.02954781428851      2.48226700550480     -0.06715377418727
  C   7.33027638359200      1.71825678252411      0.17333562309030
  N   8.52078737811937      2.09950729391517      0.33795446778542
  N   6.99585121424234      0.35925491649617      0.19973687197803
  C   3.57116624129865      1.48808380562697     -0.26021566123333
  O   2.95726277721799      2.52762451490200     -0.43724144004748
  C   2.67461543753489     -2.67186082485518      1.45494613119283
  C   2.32181902871748     -2.89318701696524      2.57706483958004
  H   2.33646476136295     -2.60867935941244     -0.61309681411352
  H   4.50842440231007     -3.30293502574153     -1.32354763598843
  H   4.42932101993403     -4.19283420975295      0.21020305420811
  H   6.47476750118236     -2.41760127567540     -0.29078774739957
  H   5.75814611491004     -2.49465789546582      1.33860344461250
  H   5.86658401459499      3.21979164158715      0.72114727311762
  H   6.07830317697235      3.02624427431598     -1.01324034195507
  H   8.59006630578093      3.11197446642974      0.29236512305477
  H   7.66254535333318     -0.34409647031534      0.47079131516372
  H   1.99269906707448     -3.07914853810358      3.57172322092396
