27
Coordinates from ORCA-job 5204optt
  Br  1.18582025311365     -0.19878025782727      0.03259761943321
  C   3.07298489121913     -0.11079067490188      0.07452458528817
  C   3.75950002372532     -1.27052066095081      0.02952971837543
  C   3.28236060909637     -2.69094658488870     -0.04639868239429
  C   4.57374502667032     -3.45954023165752     -0.07486729970836
  C   5.59212671820721     -2.61003476024010     -0.01440894664979
  N   5.12995284478722     -1.27809059262293      0.05241239607802
  C   5.92664214211266     -0.12811299976128      0.17871777543509
  N   7.18322143994640     -0.10552797730155      0.35692783012873
  C   5.14132469738395      1.10440054576195      0.09348829486357
  C   3.77964859867639      1.14227559809457      0.10266544940077
  C   2.97349891506910      2.41492023310438      0.12808030113062
  C   3.79407641310505      3.65933563633383      0.41930886794544
  N   4.96528411942846      3.63501649342170     -0.45339185475198
  S   6.13505381869744      2.58058891599884      0.05754293970715
  O   7.11359173749782      2.54701578084408     -0.97844376373066
  O   6.53330454446698      2.87044186605850      1.40281404470787
  H   2.66690349849568     -2.84797103282110     -0.93680528850493
  H   2.65185575587117     -2.93593420235399      0.81360627028084
  H   4.65270978362453     -4.53135131305272     -0.14394978372963
  H   6.65041498756119     -2.80859207329529     -0.02766578598244
  H   7.61333045448407     -1.02126103974470      0.41418490522466
  H   2.18484600446631      2.30704823615644      0.87493159667310
  H   2.47375123490606      2.51315706260789     -0.84023572912357
  H   4.07973949596203      3.70010267768969      1.47518113273354
  H   3.21138235027413      4.54943334399343      0.18956678145527
  H   5.39992964115129      4.53471801135457     -0.62991337428582
