17
Coordinates from ORCA-job 520optt
  C   1.53930523607677      2.88110876827507     -0.82603141997923
  C   2.99123713150103      2.56838780355887     -0.66006885970439
  C   3.46465590996463      1.42068758532359     -0.17280840209050
  C   4.88366687066530      1.08519852322231     -0.00400208890288
  C   5.25717661136364     -0.13997972023748      0.36215885866980
  C   5.89603389358723      2.17670502311100     -0.23028756354337
  O   5.79283686920163      3.21980726542796      0.72586528361598
  H   1.26149308185056      3.76640225620478     -0.24943465869047
  H   0.91634370516458      2.04868213919618     -0.50048615632156
  H   1.30613998846638      3.09941249724138     -1.87057641569095
  H   3.68728223801897      3.34145805449651     -0.97814083040966
  H   2.75794451414132      0.65191448351376      0.12939231438276
  H   4.52751315341767     -0.92262881249133      0.53334922380982
  H   6.30058287375246     -0.39460832531634      0.49733665717775
  H   5.78865076614042      2.58025370425189     -1.24471362992022
  H   6.90244509916633      1.77063025588063     -0.13876758830843
  H   4.86169205752104      3.37456849834120      0.91221527590555
