26
Coordinates from ORCA-job 5212optt
  Br  1.18112078744095      0.10966845594265      0.32037086503892
  C   3.06084599444070      0.03816782924909      0.15531072183899
  C   3.69903459070644     -1.15354690475698      0.12044424279962
  C   3.20989916271445     -2.56684589969804      0.19905357966108
  C   4.42889848541359     -3.38254869431356     -0.25499758870646
  C   5.63259376906807     -2.49456451587873      0.04183697196989
  N   5.06114415212883     -1.15061631104312      0.03055409713918
  C   5.83820036510678     -0.01205404484968     -0.00471755212980
  O   7.05275650057711     -0.05785834415630     -0.02423112690053
  C   5.02251151621807      1.21466268825430      0.00436558017093
  C   5.76389615542007      2.52146919265429     -0.08972891240323
  C   6.19906506320023      2.78118840721541     -1.46188985472492
  C   6.53454283028811      2.98756452033336     -2.59185913282917
  N   3.73415563285888      1.20893474577693      0.09151598639745
  O   4.40090526687685     -3.57204627498344     -1.67663891821282
  C   3.57155102984398     -4.52350050950483     -2.11982961986962
  O   2.87109756955657     -5.19984559074308     -1.42871684331163
  H   2.33280352993999     -2.75004755033073     -0.41792619583644
  H   2.94213526410512     -2.81276202329793      1.22957377346235
  H   4.48573693714952     -4.35548345714677      0.22658215338147
  H   6.41531901808865     -2.57779287453178     -0.70883386610601
  H   6.06262809864641     -2.70094040761146      1.02322956928631
  H   6.64178270306824      2.48431594792778      0.55905031203054
  H   5.09909125559107      3.31660953173889      0.24593748421584
  H   6.83796131079492      3.17384174290699     -3.59396898364541
  H   3.63532301075632     -4.58996965915326     -3.21148674271654
