24
Coordinates from ORCA-job 5216optt
  Br  1.21316520437971     -0.44257278436768      0.61382160795855
  C   3.06675224713649     -0.29261179811248      0.34626234052303
  C   3.83498632091477     -1.36916546392656      0.04608302835453
  C   3.48969029920702     -2.81249362902731     -0.14756374165398
  C   4.85033462767306     -3.50927134989456     -0.11514418222649
  C   5.86077456009036     -2.42443558548798     -0.49656403741191
  N   5.15750675931313     -1.19146612452612     -0.15302851579415
  C   5.81125586035887      0.05131626510339     -0.09195754384245
  O   6.99319261410146      0.11154257061598     -0.32944597470222
  N   5.00898604912393      1.12489920864436      0.25203453077820
  C   3.73945613052825      0.95404795785258      0.44704114718437
  O   5.05339106639136     -3.93347824920333      1.23999035820079
  C   6.11391556393723     -4.71427981216087      1.43908096054202
  N   6.92732780607572     -5.11981497693352      0.51674949458596
  O   7.83779597920879     -5.89568458690596      1.15665908181957
  N   7.58518701588580     -5.96499630291715      2.47671074537453
  C   6.53321253026016     -5.24825670165721      2.69265293100364
  H   3.00304721072239     -2.94184974710800     -1.11698246464299
  H   2.81620263806457     -3.18853441458060      0.62054759427052
  H   4.90877104366336     -4.37924700510899     -0.76661847643448
  H   6.09612340336346     -2.43663642694815     -1.56205151715102
  H   6.79554989591777     -2.48952030821718      0.05506593030404
  H   3.15773690110497      1.83445652332457      0.71041850036815
  H   6.10863827257735     -5.12694725845720      3.67423820259177
