24
Coordinates from ORCA-job 5224optt
  Br  1.00605169267706     -0.35690858109003     -0.34333613371507
  C   2.87178637506164     -0.17459485819026     -0.18055599573832
  C   3.43747852189495      1.04699365200476     -0.07810486504317
  C   2.79878945314153      2.40684758327512     -0.01243183203254
  C   3.98182911846044      3.31071087541934      0.21135704860472
  C   5.09538292300023      2.59012959138019      0.23781906938274
  N   4.79774473272849      1.21352991255397      0.07196556094282
  S   5.96223368804730      0.08367283019993     -0.39294660948910
  O   6.16793588155518      0.20780399082667     -1.80228700936232
  O   7.09739234209674      0.27657688529565      0.45522213895070
  C   5.06352381705702     -1.31170055479772     -0.00968850561919
  C   3.70624515735910     -1.32920228359456     -0.06878382201652
  N   3.24790603478513     -2.62560115404677      0.03513462609580
  C   4.30194586610919     -3.52988687866264      0.19870306339641
  N   4.25543670202199     -4.77497605213297      0.38683087565851
  C   5.58735914699598     -2.71437570415872      0.11852772112225
  H   2.06034238135549      2.44629511442047      0.79313053864899
  H   2.26257031048473      2.62846984046241     -0.94041000117441
  H   3.92086277459126      4.37897121419230      0.33403642169309
  H   6.12521342540290      2.87830501255754      0.37656685655029
  H   2.27334223143919     -2.86382391571088      0.12491724831145
  H   3.30291168947535     -5.13370423565328      0.41190262537750
  H   6.17281683848168     -3.03383771632955     -0.74594303732912
  H   6.19289889577740     -2.87669456822097      1.01037401678448
