29
Coordinates from ORCA-job 5225optt
  Br  1.28688119345360      0.55193399935684      0.00145591170582
  C   3.14700858799319      0.21285681887641      0.15547763613003
  C   3.63361748085041     -1.03303323176633     -0.00928626621890
  C   2.80306552550133     -2.25421913053411     -0.31478664928300
  C   3.45327379834319     -3.51196038040594      0.25607465055598
  C   4.87756201754526     -3.66818144973401     -0.25432225926115
  N   5.61383409937739     -2.44550099169039     -0.03156412135561
  C   7.06340834732084     -2.39977701808366      0.10307775991718
  C   7.84384771655551     -2.86595903611510     -1.13902809854819
  C   8.77177246031702     -1.67940711606155     -1.40022425783711
  O   8.01129730565355     -0.54970697706765     -1.02894341616203
  C   7.37480993560847     -0.87915163177805      0.20018019551987
  C   6.02093642513061     -0.24882630643070      0.30108201815562
  C   5.06267067232451     -1.21536223541327      0.08989999270323
  C   5.79018017543959      1.12660686722771      0.53711828231069
  O   6.59087215848037      1.99900613737674      0.76436343463097
  S   4.03425743527765      1.65045526949739      0.49719068922691
  H   2.69531397819759     -2.35576512325979     -1.40017075440429
  H   1.80055458336126     -2.13360736278654      0.09061402331558
  H   2.87101394411279     -4.39209017311180     -0.01639046656876
  H   3.46969111493814     -3.44780575675960      1.34649273902083
  H   4.87150836370308     -3.92804732806703     -1.32010458159019
  H   5.39144369338403     -4.47551695006852      0.27363593479572
  H   7.36049307543306     -2.95091625486147      0.99903977370684
  H   7.15740494698676     -2.98724829443886     -1.97757671271701
  H   8.37526007123603     -3.80308439773948     -0.98276505256409
  H   9.06009480652126     -1.56837495954003     -2.44329383548174
  H   9.67863096674853     -1.75027697594082     -0.78578623492669
  H   8.04229512020491     -0.63304001068038      1.03053966522349
