26
Coordinates from ORCA-job 5226optt
  Br  3.40216579810694      0.20514723786435     -3.22156392822804
  C   3.56990237929795      0.31993726957154     -1.34454760736390
  C   3.12103006636572      1.39098540126244     -0.66843305303785
  C   2.31304276885935      2.51626300498129     -1.19498125581841
  C   1.00705918561624      2.33380894075827     -1.34633000344616
  C   -0.01182258850393      3.36558913380941     -0.95044508759947
  N   -0.07768597665414      3.41893391429545      0.52788973783519
  C   0.33402159869471      2.20903563555616      1.30287264622502
  C   1.56492728505039      2.93756218732483      1.86781398190777
  C   0.99324941667564      4.19547303327812      1.19978348761274
  O   2.87066950473121      2.64219968169853      1.34000654719677
  C   3.23422095772817      1.45092698252560      0.78807398134538
  C   3.73438495666841      0.48009411020535      1.58162906841706
  C   4.27515591212439     -0.77880099419859      1.12027140747976
  O   4.72369606446907     -1.64882384500959      1.82106245396266
  S   4.30788407070807     -1.07959271225143     -0.65579426319035
  H   2.72487754583338      3.51380409594639     -1.08464880958901
  H   0.64743492753749      1.31018956914622     -1.41152313067798
  H   -1.00010614297503      3.12501561702551     -1.34118040623360
  H   0.25330623522499      4.36529912820150     -1.29715262615215
  H   -0.39492878951650      1.98735912761102      2.08297461291558
  H   0.53091940540379      1.29669230945149      0.74383728610829
  H   1.65061990145232      2.94681529410317      2.95328134204875
  H   0.58332247591789      4.93106849887952      1.89313919289588
  H   1.70552255880877      4.68159670132748      0.53145241585039
  H   3.77213048237468      0.63542067663590      2.65251200953567
