29
Coordinates from ORCA-job 5227optt
  Br  1.05350359314376      0.04252746247589     -1.18406338908371
  C   2.84873768087173      0.06635804494053     -0.65767166337281
  C   3.51076252305939      1.14880083932896     -0.17623999353111
  C   4.92133747468552      0.99224499567391      0.10747610811465
  C   5.73968464235410      2.16138659386663      0.57005511545321
  C   5.09963871430335      3.44718024334872      0.09505957943871
  N   3.75300759011204      3.50801629664002      0.64682759976232
  C   3.08746046711838      4.77981640959225      0.36860920369358
  C   2.54089083308135      4.67568738960634     -1.06793666501826
  C   2.34047449374756      3.16528595581981     -1.28531059920733
  C   2.84338156478207      2.50631684799666      0.04892818862954
  C   1.72208943130079      2.34316742724185      0.99275434095782
  C   0.81968962720130      2.24433103844510      1.77208148619936
  N   5.54677619724690     -0.12650040129378     -0.05246257222961
  N   4.84848474153366     -1.17448633685550     -0.47552186871800
  C   3.51905417012555     -1.22739195399868     -0.82649740154068
  O   3.01440205160122     -2.25489540235404     -1.22345085790462
  H   6.75479087982107      2.04395403560995      0.19320129691996
  H   5.77646564604451      2.17447117543275      1.66160219875213
  H   5.11950081464028      3.49806171955648     -1.00616884681969
  H   5.65117974021732      4.30759633839863      0.47306022505245
  H   3.78756192410621      5.60046636202144      0.51461008333618
  H   2.26782937177168      4.89910672663503      1.07751041887941
  H   3.25606244364249      5.07591222134579     -1.78599860816825
  H   1.61273274286943      5.23195407819500     -1.18399096555267
  H   2.93462552861066      2.79140272544846     -2.11950473866454
  H   1.30519427467620      2.90237153564550     -1.47587814220253
  H   0.01748567136624      2.13891735520106      2.46282637673766
  H   5.37219516596521     -2.03205972396477     -0.58390590991314
