21
Coordinates from ORCA-job 5230optt
  Br  0.83532100939611     -0.20117076331515     -0.01984606941491
  C   2.76959115848852      0.03169278833051     -0.20108368965210
  C   3.53617875728425     -1.18601164691209     -0.07103084502928
  C   3.15899069044156     -2.49150755463566      0.15527610949334
  C   4.30723923382847     -3.32162219533745      0.21379205433712
  C   5.42078934983836     -2.53897344972363      0.02668674738531
  N   6.75549152874563     -2.95827273241422      0.01888742380407
  C   7.84517394283044     -2.26280497518329      0.44755718379050
  C   8.92663153131990     -3.08521744047138      0.29670762043633
  C   8.37655529815020     -4.27419096948702     -0.22870939623701
  N   7.06455999153536     -4.18788765037865     -0.39149508843155
  C   9.08222989963288     -5.46951458705281     -0.56993377513198
  N   9.69122036119331     -6.40575214865559     -0.82824628513210
  C   4.97499428241826     -1.19681611218872     -0.16110714282889
  N   5.73002965284424     -0.17430954718014     -0.52723270186418
  N   6.37392436188451      0.67204091401696     -0.83537913478167
  O   3.21917254408195      1.11411841120156     -0.39970869063291
  H   2.13947253831340     -2.81877400829276      0.28465487685833
  H   4.32955988987199     -4.38528093811770      0.38497188548621
  H   7.75720735232828     -1.27184039282658      0.85946837622760
  H   9.95566662557232     -2.88190500137616      0.53277054131777
