24
Coordinates from ORCA-job 5234optt
  Br  1.25193040662467      0.16603479558725      1.00397843109241
  C   3.00627992410103     -0.09439125853148      0.42903258569343
  C   3.55686157837043     -1.30323930382536      0.16142436371495
  C   3.19587252378249     -2.67476149149892      0.18515159068728
  C   4.33687068509198     -3.32865759221795     -0.21572854472475
  C   4.55126219521216     -4.80823216964412     -0.28684550862196
  N   5.09613751536354     -5.30896220631252      0.95900600886791
  C   6.41543773428676     -5.22719993494264      1.39328394327138
  C   6.42033033575445     -5.55863938767631      2.68179245457828
  O   5.12753455730923     -5.81833593075428      3.09472143775744
  C   4.29384449260963     -5.61371429541911      2.03109308610770
  N   3.02892522608451     -5.67602559899192      2.01887211627323
  N   5.39840905537714     -2.48368761839610     -0.49412019808584
  C   4.93517361584577     -1.27975747395334     -0.27121587079090
  C   5.56825521829607     -0.01583696819742     -0.38903216350896
  N   4.98767996678707      1.10382730281733     -0.11766907668167
  O   3.66867839305770      1.03881671384910      0.30745647178802
  H   2.26078344493552     -3.12079109890649      0.48154379856651
  H   5.24977995236116     -5.04283056609430     -1.08942198547793
  H   3.60972181500407     -5.32793544455697     -0.45524365693818
  H   7.21727310404605     -4.94838671254091      0.73311679961387
  H   7.19988536185419     -5.66804535892262      3.41145058408081
  H   2.66857558649675     -5.93334928821140      2.93084052984834
  H   6.59549731134755      0.08810088734056     -0.71648719711139
