28
Coordinates from ORCA-job 5236optt
  Br  1.24954967292688      0.33258695099377     -0.32371227958526
  C   3.14917196382957      0.18213148939410     -0.19236445076213
  C   3.70219318229062     -1.07327080038961     -0.12431028898717
  C   3.08824474417407     -2.44553571454480     -0.11321384032734
  C   4.04989202319002     -3.44349344006225      0.55968648551746
  C   5.47303139133658     -3.41544481422649     -0.01444572682618
  N   5.96603843448847     -2.04616155038449      0.02497802762124
  C   7.21525742918615     -1.48124300262419      0.07488402238279
  N   7.19316757415547     -0.17564661729917      0.03973398114676
  C   5.85376049336220      0.14456141495611     -0.04404815940931
  C   5.09345312006811     -1.00698932395009     -0.05518408403649
  C   5.13857017206279      1.36210685834217     -0.11206667153552
  N   5.77240539429620      2.55690999056808     -0.10597034764085
  C   5.06485733975214      3.79481897106152     -0.18042356720086
  C   6.02220013773477      4.94985387458045     -0.17136618693155
  O   7.21358826805621      4.82644370758501     -0.10968343236221
  N   3.81101215211670      1.34100647647098     -0.18649173394959
  H   2.87272326919581     -2.76865010308168     -1.13669129767802
  H   2.13633324668134     -2.43596615747721      0.41832473669380
  H   3.66063023953619     -4.45710753982968      0.46314532230204
  H   4.10682537717398     -3.21463221674286      1.62628304968189
  H   5.47542480016582     -3.77066830597699     -1.04800626954316
  H   6.13700782758533     -4.05254869993728      0.56888362364673
  H   8.10654843074286     -2.08738013867158      0.13713419117016
  H   6.77991917562817      2.58668253659380     -0.05152544988073
  H   4.36178797836370      3.92128712317563      0.65307081994311
  H   4.45085447533959      3.86346451870171     -1.08774554362872
  H   5.55255168656022      5.94788451277503     -0.22987492982090
