26
Coordinates from ORCA-job 5245optt
  Br  0.53174251546472     -0.01128183958264      0.43158953981556
  C   1.13768409658503      1.80827732524601      0.35142508048638
  C   2.24822151136635      2.15584466030559      1.06523730373959
  C   3.38605006568739      1.25918625643886      0.67850074285257
  C   3.48938581321306      1.25737960192341     -0.65777800069578
  C   2.50381906896147      1.91327917115727     -1.59557420128067
  N   2.73307291945177      2.09915043580778     -2.82568101510394
  C   1.13243951061386      2.32644921625296     -1.02720028868467
  C   0.19089839161072      2.86075461019402     -1.80198517722661
  C   -1.21913869803754      3.15796474313223     -1.44277157114793
  N   -2.08111339933614      2.98060214969070     -2.36198060493755
  N   -1.48769054571616      3.55389289035972     -0.14227336479448
  C   -0.51254394000883      4.23255338464212      0.61932126416487
  C   -0.18124511090298      3.83896929842175      1.83669553010815
  O   0.87719050093131      4.42449347714871      2.49783882966277
  C   2.10585838773249      4.38862416426112      1.90990632622630
  N   2.68026192305467      3.46378437292918      1.27550842922291
  H   4.12708978861579      0.83687359410320      1.34497338979321
  H   4.34906757029192      0.80851964750268     -1.14411486853148
  H   3.65242607272112      1.75241631643407     -3.09617169072103
  H   0.42915963888877      3.01794198936478     -2.84700739457140
  H   -3.02954310988044      3.17578151445802     -2.04214348875840
  H   -2.45787725335057      3.74032628641645      0.06225818513215
  H   0.06438255771168      5.00899883922709      0.12570178672837
  H   -0.68078537499606      3.04863310134069      2.38023233932730
  H   2.64318709932660      5.31058479282419      2.10849291919380
