21
Coordinates from ORCA-job 5251optt
  Br  1.03960248258631     -0.24090112764467      0.05504075435133
  C   2.91733286453882     -0.09324890851958      0.05504174261140
  C   3.55436975287710      1.16592475210459      0.05524422838243
  C   2.85155023710813      2.39771167165898      0.05543746890655
  C   3.54355539607277      3.56878415412322      0.05560423004607
  C   4.95825294557145      3.52396364818358      0.05557632096331
  N   5.64711271316228      2.41931716558849      0.05540973125592
  C   4.98156557116903      1.23605563553451      0.05524616570123
  C   5.75975818771671      0.04846086254488      0.05505796802568
  C   7.18269685999376      0.07815839768997      0.05509691089929
  C   8.38020660100355      0.01939402182226      0.05512086547872
  C   5.08706886679713     -1.15544043528508      0.05483613326227
  C   3.67028794237012     -1.24746695588547      0.05480457694161
  N   3.17807685750402     -2.54010859312818      0.05451002716806
  C   4.14325701565755     -3.38112859593698      0.05434037856664
  S   5.76588298963316     -2.74498688927684      0.05451779320228
  H   1.77041137916451      2.38733047233446      0.05544241366240
  H   3.03302594230087      4.52193264770917      0.05575229326696
  H   5.52804600679806      4.44811190721511      0.05569975499553
  H   9.44357761278840     -0.00935577642708      0.05515038583017
  H   3.99036177518622     -4.45250805440537      0.05406985648215
