29
Coordinates from ORCA-job 5254optt
  Br  1.13413936562570      0.27268927525878     -0.33476902432374
  C   2.99914436803228      0.00001193267851     -0.23652999105425
  C   3.53960155739706     -1.23268402333140     -0.12623681226697
  C   2.72525449733344     -2.49718381273295     -0.02088379897858
  C   3.55301814724671     -3.69103258713838     -0.50831321496619
  C   4.87317924757149     -3.74311432501884      0.23665030775498
  N   5.59267820360436     -2.49863083556999      0.03466677912174
  C   4.98830163324686     -1.27479531953704     -0.03031568938829
  C   5.72537596618887     -0.12111709754612     -0.03154415599613
  C   5.12410298146131      1.17601969867594     -0.15508146438001
  N   5.65719400952112      2.34184821036918     -0.18594421160141
  N   3.72705503112048      1.13826272089901     -0.25948568265607
  C   2.24369052369303     -2.72284098401169      1.39266657373529
  N   1.46522344364275     -3.75769460637912      1.67084873027787
  N   1.23479272843658     -3.67212766256021      2.98298009193892
  C   1.84410744980353     -2.61743941657463      3.55828583185100
  C   2.51856295343081     -1.96750838704820      2.55301673807376
  H   1.84565290042995     -2.40900760471272     -0.66040286897898
  H   3.74373483403059     -3.58682353583492     -1.57841960849489
  H   2.99232269213883     -4.60928742260837     -0.33957928801981
  H   5.49299322150321     -4.55640170705313     -0.14063031716667
  H   4.68587754679209     -3.92881275045733      1.30113970382611
  H   6.57736828079734     -2.49374782463371      0.24079245529760
  H   6.80424025004943     -0.16593466216103      0.04176687092626
  H   6.66643359364211      2.27412400130915     -0.10841809982084
  H   3.27501303977036      2.03574968622197     -0.35454934096044
  H   0.64981130745919     -4.36015388470941      3.42469255883374
  H   1.75094443158234     -2.41441182189434      4.61160659541369
  H   3.11518579444813     -1.07495525389898      2.63199033200231
