26
Coordinates from ORCA-job 5259optt
  Br  1.11260431211502      0.27230657942995      0.16271678283107
  C   2.98700792147502      0.06578498441714     -0.00165814911933
  C   3.54881201986564     -1.20304322517069     -0.07117736870546
  C   2.72286746298960     -2.46235130859323     -0.05261111251946
  C   3.54556960435922     -3.68053989620431     -0.46794745462220
  C   4.91510293189088     -3.66026625932691      0.20356507634513
  N   5.60473645895154     -2.47147143492271     -0.25527834516780
  C   4.94479564269171     -1.25579187439907     -0.15554325676055
  C   5.66039588257722     -0.05464811904005     -0.18108011950436
  N   5.09620306996943      1.13794207600001     -0.12527674871992
  C   3.77337884962655      1.20693361728210     -0.03254560565892
  N   2.83810333675662     -4.90941462697067     -0.15533794753684
  N   2.52780541307931     -5.81229024514084     -1.11262463852588
  N   1.93865700974789     -6.78339449405127     -0.57822045041018
  N   1.85420512017836     -6.54118368766230      0.74520119655279
  C   2.42554724208782     -5.33921150235531      1.08662084962946
  O   2.54260488486956     -4.80529934689934      2.16653979707751
  H   1.86520913085253     -2.35305829639863     -0.71791033002810
  H   2.32858499648487     -2.62161420287425      0.95511430725616
  H   3.68737000119737     -3.69428529115016     -1.54888279185536
  H   5.48659984965064     -4.53835529791718     -0.09583542854902
  H   4.77672284025627     -3.68091853307369      1.29142368400459
  H   6.58822354974175     -2.43264412028235     -0.03820132113031
  H   6.74404370767985     -0.08337155071224     -0.25436580809455
  H   3.32214939300341      2.18918524005136      0.02431983221491
  H   1.40869936790187     -7.19899918403534      1.36199535099661
