26
Coordinates from ORCA-job 5261optt
  Br  1.03354335732573      0.21922340330056      0.09785587411929
  C   2.90279840761691      0.07376305739425      0.04451017277852
  C   3.52894286756662     -1.12005838519413     -0.05528387113029
  C   2.76429935719610     -2.41685832008356     -0.14261406215462
  C   3.64245474189164     -3.60543552053626     -0.51419910222817
  C   4.95494020519755     -3.53534077547145      0.26376875249748
  N   5.65625028037910     -2.34941797897011     -0.18655406651239
  C   4.97715344067614     -1.13318693039032     -0.03327988459737
  C   5.61848070844000      0.04106874378964      0.08290528636389
  O   4.98189592181768      1.22702332392984      0.14926540128885
  C   3.62087362768033      1.34775249253089      0.13871299771132
  O   3.13256998857700      2.43578691868194      0.20575646127994
  N   2.92060229644785     -4.83167742470728     -0.27161474181451
  C   3.32427193399157     -6.03363665510379     -0.78656952457369
  N   4.26885231409851     -6.29915374722697     -1.58978311045605
  C   2.49720528643812     -7.14459302221933     -0.31677563388351
  N   1.82729554081462     -7.97981836723659      0.08784428521220
  H   1.94072166596410     -2.31075232404677     -0.84954492871366
  H   2.30686000564704     -2.59678533346423      0.83832338630405
  H   3.88382072876030     -3.54733297130450     -1.58021945556248
  H   5.57125138544293     -4.40918246255388      0.05557006463189
  H   4.72780691119779     -3.52652309139439      1.33981016602093
  H   6.62309875586246     -2.30625811313600      0.09879305520498
  H   6.69308034831077      0.14971534694575      0.11456884566902
  H   2.18027377873228     -4.83751369455006      0.41167485062804
  H   4.78965614392676     -5.46980816898316     -1.86692121808367
