28
Coordinates from ORCA-job 5278optt
  Br  0.86105210355625     -0.48409435274888      0.12673735359614
  C   2.71454042676895     -0.23386253178882     -0.07755411892170
  C   3.60495006896634     -1.23984080497921      0.00930382237582
  C   3.43119150386493     -2.71252721160897      0.25673591454487
  C   4.77369688216377     -3.28832390366401     -0.23073829803928
  C   5.81375442205147     -2.16494101053373     -0.02247040885576
  N   6.45271969538089     -2.15440630226501      1.28870249769084
  C   7.24741632679662     -3.24934381471777      1.61589735069411
  C   7.69219792642919     -3.65048048648322      2.84998033913838
  N   8.49771438015285     -4.74113400319973      2.59272593223222
  C   8.49858535728467     -4.94246138473936      1.26104877477511
  N   7.75079706848009     -4.06217203982895      0.63876534364211
  C   4.98532399524824     -0.90519498216635     -0.16581154786529
  C   5.41443276955374      0.35533253304266     -0.39327731691201
  C   4.46032932775578      1.44348769952311     -0.49113070725081
  O   4.70673366894962      2.61437944667585     -0.70170702831455
  N   3.12486603510424      1.04010089920378     -0.31977578888521
  H   2.57478534246085     -3.12957222777149     -0.27239671423097
  H   3.27542916576425     -2.90656538776418      1.32195450956078
  H   4.70603275985473     -3.50748055508817     -1.29782762064642
  H   5.07023046493287     -4.20261156886349      0.27899082987568
  H   6.60638210765489     -2.22075553323720     -0.76640504818544
  H   5.84743811237213     -1.85033518773240      2.03782684330168
  H   7.53480575626661     -3.26549693861766      3.84083767591615
  H   8.99383011492771     -5.28588385680966      3.27576291703196
  H   9.04878983446370     -5.74106770104268      0.79112090894397
  H   6.45910325428830      0.60471854193099     -0.51639862604062
  H   2.44487112850625      1.78453266527458     -0.38889778917176
