28
Coordinates from ORCA-job 5279optt
  Br  3.83175909884653      0.99801871213428      3.22547202347331
  C   2.41945737190271      1.66584314839232      1.98637202162672
  C   3.07143279721703      2.09357027660418      0.73045623558334
  C   3.01337223170785      3.46955405579537      0.11327372151140
  C   1.94875848367145      3.69553995257719     -1.01464242940014
  C   0.88129248448672      4.79886896616263     -0.72484147124733
  N   -0.52969347474896      4.35500037771842     -0.61321516928330
  C   -0.65870124575573      3.12285059087854      0.02093529525901
  C   -1.09679617368055      1.91089903160364     -0.45327974219537
  N   -0.59199866405440      0.82466019485063      0.19586123907020
  C   0.19991886804218      1.18671154754056      1.15928048363509
  S   0.20996247670024      2.91192540973254      1.48883938955653
  C   1.48698787024083      0.61630668574919      1.50034034665732
  C   2.07406981362316     -0.48743185132925      0.96620595480606
  C   3.42298985181221     -0.28320524378924      0.44638097337906
  N   4.29760068173392     -1.08448273714162      0.00770019513074
  N   3.72051899832381      1.12303815281936      0.14632662139478
  H   4.00742972845392      3.67323363068477     -0.29441916919399
  H   2.84783109736532      4.17222786807277      0.92868571859605
  H   1.44814168167095      2.75322685675187     -1.24470924282162
  H   2.48552849381904      3.97888912617673     -1.91951596694649
  H   0.90291462089748      5.54561689209272     -1.51718741792593
  H   1.14068020879430      5.32060629670682      0.19798683206031
  H   -1.00578495204195      4.36822162632620     -1.50488699942318
  H   -1.68446238593893      1.77223950115095     -1.35090150514801
  H   1.54869834493895     -1.37630898788739      0.64424745067508
  H   4.02620973577475     -2.04724064204354      0.19408247638775
  H   4.36188195619712      1.24862056166934     -0.63084786521741
