27
Coordinates from ORCA-job 5282optt
  Br  0.94051819026641      0.02306101668335     -0.40948511561560
  C   2.79938687360981     -0.14315053952153     -0.63293701984232
  C   3.49149013539997     -1.23092690561722     -0.23867396340640
  C   3.05832847291678     -2.43418628897648      0.39350413113547
  C   4.16249342955634     -3.20754569305119      0.59616356048120
  C   5.34344072584159     -2.54075843172113      0.10741212711393
  N   6.58198260475504     -3.14589399089546      0.18411227881055
  C   7.81667069429518     -2.41242370573972      0.08557482698001
  C   8.02596549124290     -1.30978781415790      1.13841718035955
  O   9.44137315228819     -1.14604248537019      1.21207094060959
  C   10.07188529080151     -2.28647561743860      0.80650306348810
  N   11.31230913494190     -2.46281723280679      0.81860578891387
  C   9.04155078488255     -3.28270522938821      0.33992391390155
  C   4.95784102316469     -1.32131787803004     -0.42184399646544
  C   5.65513512898506     -0.26390967909172     -1.06550659116180
  N   5.14531379304966      0.84040742086347     -1.50315415147918
  S   3.54263911470679      1.20688020850587     -1.38790326687616
  H   2.03940882956961     -2.66729747783232      0.65769597484409
  H   4.17614063309450     -4.18675481027194      1.05517964063178
  H   6.61339689995660     -3.91968969261416      0.83084206068198
  H   7.89757658122292     -1.97949616037649     -0.91419048468545
  H   7.63715287263673     -1.64221615212099      2.10638916455659
  H   7.58750641900611     -0.34663830327143      0.88923774334179
  H   11.79425778649810     -1.64684825691365      1.19385317017830
  H   8.84188686362757     -3.98325086782108      1.15762547780803
  H   9.39180029349269     -3.84650812709732     -0.51936418434086
  H   6.72454878019074     -0.34370730592713     -1.23505226996319
