22
Coordinates from ORCA-job 5284optt
  Br  1.11556517467959      0.12324098523199     -0.10705717594716
  C   2.96450490658294     -0.00956411612907      0.07854353055033
  C   3.68035906941055     -1.14002960395184      0.02002209560345
  C   3.39254800936411     -2.53353479232138     -0.14339694181219
  C   4.58472438510041     -3.18725911231141     -0.06302618417389
  C   5.67807618917177     -2.25163420128741      0.11968717515109
  N   6.99840090869648     -2.66700579695523      0.28345460496906
  C   7.91306608438034     -2.08065716840958     -0.33323364389261
  C   7.91371383888362     -0.98434698821199     -1.36533387930926
  O   9.24879917326374     -1.01048365140199     -1.85446391058034
  C   9.99897601888547     -1.83937771653772     -1.10951759982962
  O   11.15682552055379     -2.02111271681162     -1.22972762558248
  O   9.21496497993888     -2.46488106736007     -0.17877280055436
  C   5.13381449368776     -0.99892834426876      0.18087976354351
  N   5.70127897680292      0.23271277167430      0.40830747898995
  C   4.91354710302107      1.22379835145202      0.44836989326188
  O   3.55584151390390      1.17915806794300      0.28762794074412
  H   2.41474293413060     -2.96304640505685     -0.28868673778307
  H   4.73427274272610     -4.25492160850319     -0.12841072527224
  H   7.69803647348530     -0.01305844184388     -0.92285920863580
  H   7.20907165636695     -1.19063796622491     -2.17089793703357
  H   5.23886984696364      2.23956952128560      0.62149188759320
