21
Coordinates from ORCA-job 5288optt
  Br  0.74612035062818     -0.35847364462335      0.17899901043913
  C   2.61009412075948     -0.21388256095335      0.02552658553478
  C   3.42569063867476     -1.26893092192335     -0.00982077763666
  C   3.16038614939639     -2.70254748234328      0.04012234584897
  C   4.34635716694876     -3.33276285624159     -0.04359695101147
  C   5.44546776689928     -2.35526280972274     -0.13027898242705
  N   6.76334594782366     -2.73426571154241     -0.27370212897125
  C   7.69131054335656     -2.14080009300395      0.36620276608153
  N   9.02324108567795     -2.46764644684728      0.21490738679195
  C   9.85763729850579     -1.81988294676070      1.08189908673337
  N   9.33737234328222     -0.97782004186895      1.89040660942573
  S   7.67582702370337     -0.90224203617391      1.61976348247450
  C   4.86901732622675     -1.12793831922889     -0.11763119993277
  O   5.53338655130828      0.05788926224472     -0.28830528534507
  C   4.95080368801533      1.26266831420860     -0.27288621938593
  O   5.58503626999730      2.25894979161412     -0.39873361746435
  S   3.17705059129038      1.43176585821354     -0.06704937642475
  H   2.17908073992668     -3.13705455401058      0.13686351195106
  H   4.51996269219404     -4.39825517848305     -0.03711166354067
  H   9.30277886467746     -3.17231158769710     -0.44936503385495
  H   10.91903284070730     -2.02919603485647      1.06179045071389
