21
Coordinates from ORCA-job 5291optt
  Br  1.02006958389208     -0.45905306689483      0.47984456426928
  C   2.86132099839188     -0.25403965442670      0.21853434058877
  C   3.68018496162149     -1.30299456103094      0.06595856307138
  C   3.44550504907314     -2.71703903191283      0.05087416873082
  C   4.62698602316357     -3.34249976827068     -0.11608839678319
  C   5.69863670954365     -2.36316919902556     -0.19459835481524
  N   6.94220222328567     -2.68279468295024     -0.32065982187133
  C   7.97904300016194     -1.86953190232866     -0.01993881694572
  N   7.98678257052113     -0.86199665993186      0.77566897806908
  S   9.55742294500357     -0.27857417041508      0.92591155973943
  C   10.20796923589239     -1.48749084370135     -0.19380253188896
  N   11.35868584117213     -1.70626248913312     -0.63387582384557
  O   9.15550369454396     -2.26949304047428     -0.58091299362459
  N   5.08375643711688     -1.12146503824156     -0.10610442711793
  C   5.59424679648112      0.10861279124059     -0.50562219729446
  N   4.98181128635390      1.21538690365612     -0.45713517125136
  S   3.42506469328281      1.38295490043964      0.13290544750448
  H   2.47182192491914     -3.16137071102252      0.18030277480606
  H   4.82325327233852     -4.40103571770125     -0.16165461639808
  H   12.03950446638141     -1.04879502256500     -0.26821753027593
  H   6.59522828685952      0.08965096469012     -0.91138971466693
