28
Coordinates from ORCA-job 5296optt
  Br  0.79668935275515      1.48424627914948     -0.70225944931449
  C   2.51637938024040      0.75885323480556     -0.35480433867437
  C   2.68871674738915     -0.63776818576474     -0.45953565280509
  C   1.57163687857812     -1.57173539421794     -0.85633028694325
  C   1.09070738928452     -2.46544866900502      0.29530077882934
  C   1.97979647497898     -3.68571268555264      0.52727884263375
  N   3.37828477149499     -3.43335355600748      0.84270737015184
  C   4.13563846158194     -2.69967998255806     -0.15862404659915
  C   3.93187426160806     -1.19773981171499     -0.15368416651969
  C   4.97096847815879     -0.34796294512090      0.21467292299915
  S   6.60256681360814     -0.74688649655970      0.64322634949292
  C   6.90489044556981      0.94229258966318      0.88881153448016
  N   5.92367617415382      1.74393120516028      0.68564737349470
  C   4.79705478589021      1.03874518311534      0.30033232354954
  C   3.54815796101498      1.61871012437160      0.01753907333964
  C   3.47067825887439      3.10316699595038      0.16144751040368
  O   2.52335849449054      3.79417134919483     -0.09845793265264
  H   0.73592165653919     -1.00131326258256     -1.24546235589681
  H   1.91826854685492     -2.20810476377558     -1.67652359523131
  H   0.08207152317556     -2.82066666293759      0.07029015758870
  H   1.01933790356408     -1.87090939243413      1.21081420277735
  H   1.56623711744874     -4.29370445923465      1.33381585665540
  H   1.96203858186280     -4.30887611062903     -0.37301614076382
  H   3.47267165993040     -2.99208629581473      1.74994527480102
  H   3.87332143013151     -3.10680906958825     -1.13864961336214
  H   5.19617808314335     -2.91380978319676     -0.01138951118540
  H   7.88742669161851      1.27284056934704      1.19722818805110
  H   4.40545167605891      3.53960999593708      0.54267933069987
