30
Coordinates from ORCA-job 5297optt
  Br  0.93204048992388     -0.26391251119776     -0.38676165754342
  C   2.82709580325922     -0.18019650751279     -0.16590532629762
  C   3.52796258349017     -1.34037870968317      0.16541685941647
  C   2.85937246890619     -2.67045290255462      0.39674499883142
  C   3.16009221203631     -3.68502248860180     -0.70445333534929
  C   4.52286697726020     -4.36198417173361     -0.54744420990458
  N   5.68520014241914     -3.50025267930060     -0.53404423848897
  C   5.74616451040275     -2.50140237734344      0.52305079719721
  C   4.92508896629591     -1.25511937871891      0.26843450378511
  C   5.57342950714043     -0.04098519068640      0.07932412910223
  C   4.85607819529910      1.09624075578080     -0.23261228797023
  C   3.47445062991303      1.04087305457842     -0.36970823931573
  C   2.77840836472235      2.30813654744336     -0.73706671836834
  O   3.37621679967173      3.32141580003059     -0.98430870808687
  O   2.15315207789177     -4.69525387897096     -0.61723563017687
  C   1.86958632828293     -5.37461589858191     -1.75136861975183
  N   1.09583144052259     -6.35689987018816     -1.82371315902505
  H   1.78177524594472     -2.55568478601423      0.45676931571598
  H   3.18862813940179     -3.08424732793556      1.35392565403309
  H   3.08552682034841     -3.18749771845065     -1.67936139766720
  H   4.64843109079379     -5.09737316557923     -1.34590317055280
  H   4.49574329147048     -4.92139598102806      0.39304245399451
  H   5.85345593915969     -3.07867270751275     -1.43910575917893
  H   6.78741231679594     -2.20585007839723      0.65989870358963
  H   5.42964959109646     -2.98445608783130      1.45164195675316
  H   6.65178142775807      0.00501670755461      0.17041950595297
  H   5.33938345743887      2.05167229893306     -0.39210766993243
  H   1.68010512561777      2.27939086060720     -0.77178179839668
  H   2.36167123662612     -4.98697290608526     -2.64522941542361
  H   0.71939882011013     -6.59511870101961     -0.90555753694133
