26
Coordinates from ORCA-job 5302optt
  Br  1.01620641726223     -0.14224109665020     -0.08972324372767
  C   2.90937518939420     -0.05362357487263     -0.09130329040823
  C   3.56016819997441      1.14412085852029     -0.09162583575441
  C   2.90814869571365      2.43248860678978     -0.09126791853952
  C   3.61530450356932      3.57093641911762     -0.09160865081381
  C   5.08462776309566      3.60175037088144     -0.09228604876845
  N   5.77603109950973      4.68640795452296     -0.09250450681375
  C   5.73255246404028      2.31289421272034     -0.09273943128140
  C   5.02360164400585      1.15768396249040     -0.09245435249203
  N   5.63282600339907     -0.07659532371715     -0.09283017323099
  C   4.98149152931000     -1.25866505999773     -0.09279569869122
  C   3.61125528870130     -1.29997951124075     -0.09204800302380
  N   2.97402556197813     -2.52143527614552     -0.09216289191201
  C   3.68272042345496     -3.67615286904481     -0.09295535536586
  C   5.03576972511193     -3.69696113462262     -0.09363723988117
  C   5.80512791627407     -2.47405639260935     -0.09356734679395
  N   7.07903863005133     -2.31332421572867     -0.09405692575941
  H   1.82749912882782      2.46015346078635     -0.09079541635097
  H   3.10112179450038      4.52591925188170     -0.09139807367463
  H   5.16357464280084      5.50067003505067     -0.09212756275731
  H   6.81475514414216      2.29582649126275     -0.09328808800551
  H   6.64563646092988     -0.15961327380617     -0.09336390976604
  H   1.96733697014712     -2.53872988972953     -0.09164923125039
  H   3.09233984389476     -4.58162178046262     -0.09300227741012
  H   5.55228377907923     -4.64621154826085     -0.09425967648500
  H   7.57118118083167     -3.20264067713572     -0.09454885104235
