25
Coordinates from ORCA-job 5307optt
  Br  1.00665829314689      0.20004179137063     -0.01268176250386
  C   2.89881413588557      0.12080703022454     -0.01114155482735
  C   3.55308606110273     -1.11512311739511     -0.03460431077613
  C   2.75972723545985     -2.39616429743610     -0.06941214788344
  C   3.60458374140974     -3.63630372760379     -0.38388001339096
  C   2.81882319774499     -4.84142424050591     -0.11172254802103
  N   2.18657194511725     -5.76423909515002      0.13424427606410
  C   4.90849125555916     -3.61036748668842      0.43599521402527
  C   5.74011931812663     -2.40273516726193     -0.00125761124381
  C   4.95096342036360     -1.11596329814563      0.01077041743542
  C   5.65086610496825      0.08370033978680      0.05565051554661
  C   4.97463759810992      1.29570570868844      0.05765492070681
  C   3.58316738200612      1.31938271986105      0.02790939028585
  C   5.70255309089557      2.53258252138781      0.10255549309271
  N   6.27892796625122      3.52353299297893      0.13779093420765
  C   5.68594141036819     -4.83671477163029      0.25280662323174
  N   6.31660832844852     -5.77570803973566      0.07412491145596
  H   1.96071600388620     -2.31574452658202     -0.80669198829968
  H   2.26201370333450     -2.53335901858657      0.89553969407820
  H   3.87369143163018     -3.64580590256711     -1.44387133025056
  H   4.65055809405824     -3.52762978215530      1.49568059813670
  H   6.12306645297292     -2.59045849458602     -1.00856615560875
  H   6.60976638142393     -2.30641538336367      0.64892921502131
  H   6.73296426213025      0.07598204179273      0.09382326202134
  H   3.04868318559949      2.25842120330267      0.04135395749591
