23
Coordinates from ORCA-job 5310optt
  Br  4.61426468706003     -2.85743784023862     -2.37112457441167
  C   5.12640065225509     -2.76526712036467     -0.59130897710404
  C   5.66075498706289     -3.76769743146968      0.14816845584893
  C   5.85730609531547     -3.28131377941885      1.57331854722228
  C   5.24637599008391     -1.87567970166286      1.64189541014609
  C   4.61745297061806     -3.01828972963182      2.31316792356473
  N   3.67525105153139     -3.48601486142228      3.01264788492957
  C   3.78251248213231     -4.88511330077160      3.15227861330974
  C   4.92938655824135     -5.49063944941924      3.52704181246956
  C   5.36878082341073     -6.41386912943047      2.49669832419670
  N   6.37049029849702     -5.90265002062651      1.82597899297491
  C   5.89995641847923     -6.05237805361683      0.52934394339670
  C   4.98450732062402     -7.23387103251428      0.44043877482623
  C   4.56005289703548     -7.38585881452762      1.69587684468918
  N   5.69450970276250     -5.07648274081795     -0.29103612556861
  C   4.81596023352045     -1.56302995966017      0.21839445770045
  O   4.32023254416457     -0.53939363013608     -0.15552734951096
  H   6.76311828849519     -3.53794648109933      2.09962672458756
  H   5.67974225793700     -1.07238550002573      2.22246440624026
  H   2.95854605324844     -5.43279441842898      2.70472095894872
  H   5.71412389161432     -4.88045684324707      3.95553419679674
  H   4.62122437612468     -7.66550855449186     -0.47779670237426
  H   3.77204941978580     -8.01092160697743      2.08519745712115
