26
Coordinates from ORCA-job 5316optt
  Br  2.98269659122992     -0.51711398844251     -3.20137896924588
  C   3.86912098320069      0.16216370716552     -1.69445222114200
  C   4.06259218274979      1.45965027482827     -1.39728905783798
  C   3.02223915361368      2.51011975787147     -1.39694588167537
  C   1.81859374460814      2.07492473095550     -1.01805925613882
  C   0.73856159279654      2.70872475067308     -0.23363836090667
  N   0.63952918656036      2.59401525725927      1.02721444182281
  C   1.57746585000470      2.07251954347083      1.93864881088722
  C   2.36113060251581      0.98398080479010      2.00744853060133
  C   2.62954456459925     -0.05709319426320      0.98559299844691
  C   1.50121708336866     -0.94095319010839      0.50563164484210
  C   1.25111231234094     -2.03204912685388      1.44731881137026
  C   1.07295508662411     -2.92772357122384      2.22072861972981
  C   3.85954409439525     -0.11437211311981      0.47083649620308
  O   4.14745489104664     -0.78302892139096     -0.73273901545050
  C   4.87667938507365      0.95159868606635      0.65088375866678
  N   4.97529105787626      1.74032609205921     -0.33948029934963
  H   3.33157364159281      3.54478509853580     -1.31474116384866
  H   1.63711565187358      1.00977531306515     -1.11363588689828
  H   -0.09286760343297      3.19735303709523     -0.74195072005894
  H   1.58327501020146      2.68997300896939      2.83158737800392
  H   2.91887527638682      0.89755781598479      2.93429705353883
  H   1.73568747229279     -1.35540559502127     -0.47720870876237
  H   0.59340688462270     -0.33716295806752      0.41635353477395
  H   0.91059323779701     -3.72379900560317      2.90730254747279
  H   5.50161206606119      1.07423378530449      1.52967491495528
