29
Coordinates from ORCA-job 5317optt
  Br  8.76364177851876      3.49766564923881     -0.28742520514929
  C   7.98514474602552      2.72769104266225      1.24683617834578
  C   7.71080634425470      3.45163833227376      2.33560852970182
  C   7.01170118010051      2.84567345209141      3.52143777761536
  C   6.48424280828872      1.42098548796261      3.26764691306575
  C   7.40422326682613      0.63998319317181      2.36669620077865
  N   7.91328366829150     -0.65880831450241      2.78147183193847
  C   9.28903141537581     -0.54600779401140      3.04110101628508
  C   9.68284318846274      0.40424251426549      3.90928153064178
  C   10.73896327410200      1.33458867258169      3.58328539614416
  C   10.51180496794537      2.63896783379788      3.83029902104035
  C   11.01066461421483      3.70785294625268      2.98486803902242
  N   10.35850041848008      4.76302824593790      2.68963093754240
  C   9.11866081785875      5.07184454236911      3.26029601109280
  N   8.90274973850114      5.70062757846528      4.32583369278433
  O   8.03223907265780      4.78106516239077      2.44949970901586
  C   7.96764991101002      1.26595047592268      1.33266766091563
  H   7.67004600468190      2.89627083563273      4.39331658237947
  H   6.17325761072111      3.50178223467903      3.76433893107881
  H   5.50474763622213      1.49505944563281      2.78644846852059
  H   6.34186667484823      0.89461467673217      4.20978473436745
  H   7.64712390706501     -1.42857017838071      2.18527080386154
  H   9.98496801543886     -1.06234153339484      2.38366070693893
  H   8.90226852350235      0.80875700611469      4.54702650391965
  H   11.52736539676607      1.02960552941952      2.90013925591371
  H   9.68534062931855      2.90308780829266      4.47890530203372
  H   11.96693127636944      3.56552856584925      2.48129028872441
  H   9.78431371452094      5.92807838165747      4.78149829262933
  H   8.64661939963088      0.74213820689486      0.67028488885102
