23
Coordinates from ORCA-job 5324optt
  Br  1.56532336352251     -0.42080381700312     -0.68556461005423
  C   3.41179329831568     -0.03627657441513     -0.56250605037184
  C   3.83184677570924      1.27007537850669     -0.36334531131432
  C   3.09787047194623      2.56517401386824     -0.18049066478851
  C   2.47826007789790      2.65686990244444      1.22836648670781
  C   1.79389590762848      3.93550665474299      1.40166660261416
  N   1.27901582251010      4.95526144090288      1.48662510626192
  C   4.20823668096516      3.61153886274434     -0.42532478358027
  C   5.55468192889969      2.90087648911924     -0.07315974450015
  C   6.65354633801462      3.35639574366162     -0.92827045081612
  N   7.46612145416064      3.72869683811756     -1.64253670224444
  C   5.89206755979161      3.08216865225637      1.34792923161296
  N   6.07878075608525      3.20499156386661      2.47079233080165
  C   5.20450704521373      1.42700853535138     -0.30751040227373
  N   6.08860134129029      0.45839778266018     -0.41340975879531
  C   5.55828873463481     -0.74679672065410     -0.60169062983249
  N   4.25961573804240     -1.03327019882739     -0.68508875208658
  H   2.29962962558036      2.67760991020837     -0.91503289536680
  H   3.24884119896294      2.56332968592205      1.99722554032330
  H   1.75910907809331      1.84932519304665      1.37387658370278
  H   4.07233290592445      4.52665349089186      0.14771556456630
  H   4.24379435865679      3.86859026715486     -1.48265153696342
  H   6.24483953815380     -1.57832309456664     -0.69961515360268
