28
Coordinates from ORCA-job 5337optt
  Br  2.84259927177868      1.04256352459208     -3.50107999529225
  C   3.55369967130877      0.26654239894258     -1.93800380010790
  C   3.59702745578875      0.89629546578909     -0.75104083975766
  C   2.96313490334138      2.22587067402759     -0.46453513938801
  C   1.48029084150439      2.08139586960628     -0.01765090418548
  C   1.15744900143534      0.96022957076455      0.99446129811873
  N   1.75665103075463      1.12366426721018      2.31231017711735
  C   2.34609902779998     -0.08229154054459      2.90099189468773
  C   3.88733399551535     -0.07942634956938      2.76300937616431
  N   4.24178894252985      0.62338480339404      1.54127202840733
  C   4.10340587060450      0.05298398338483      0.32757484744425
  N   4.36670203615918     -1.22026335072803      0.19601495839840
  C   4.30950189379691     -1.81170605228113     -1.01843550686509
  O   4.52327670271874     -2.94481689099199     -1.29628636279540
  O   3.96030603415314     -0.96820479705732     -2.13645079551453
  C   0.99793792614543      3.36356444288256      0.50155358096743
  N   0.63082664717970      4.35777755815428      0.93856766349796
  H   2.98117021880271      2.84730750821743     -1.35835973563325
  H   3.52321562791454      2.78510908504267      0.28457007101053
  H   0.89502729774964      1.85714183909155     -0.91510534950170
  H   1.50433621405604      0.02172307264604      0.55879850190142
  H   0.06715720163020      0.88720621523728      1.05410046554199
  H   1.11955554722070      1.58026980556944      2.94692229053195
  H   1.94999170032430     -0.97927090448385      2.41599917875108
  H   2.08180869668454     -0.14524840851818      3.95647621359306
  H   4.28387770598170     -1.09056157327241      2.72809952203532
  H   4.34878428081164      0.45353725747448      3.59287055553871
  H   3.91804425630917      1.57522252541992      1.59035580533371
