25
Coordinates from ORCA-job 5341optt
  Br  0.42293476645969      1.66643132569267     -2.53928234506622
  C   0.40491489526987      2.19874909695388     -0.73338892527565
  C   1.43494312858432      2.76290526088667     -0.09448643608069
  C   2.48263334361524      3.50616832690183     -0.82404967660049
  C   2.17563972465175      4.65708958620441     -1.44626931549676
  C   0.85900180012588      5.32362663273254     -1.49756638855775
  N   -0.15273249259196      4.87876543276108     -0.86571402246383
  C   -1.38783462840993      5.46726225054771     -0.80355672520237
  C   -2.34663066874045      4.96451027463282      0.01649934684838
  N   -2.25708779175295      3.80203489429815      0.82179226401413
  C   -1.00184751873203      3.14892380336692      0.84982236884320
  N   -0.84477635289203      2.21080612962395     -0.15240138541682
  N   -0.08327115808264      3.46862790352878      1.65702239500312
  C   1.21391712907254      3.01499203586148      1.36595108984583
  N   2.09088664067183      2.95034907724185      2.27847375863375
  C   -3.59631799485181      5.64629112219791      0.13828999568074
  C   -4.64435909192157      6.21194559787485      0.27480092366991
  H   3.51314957867413      3.16813906900381     -0.82439721098239
  H   2.97413022160150      5.18814977360834     -1.95239278099244
  H   0.80944938776724      6.24913400052509     -2.08333428360843
  H   -1.62736385645328      6.35555759726256     -1.38538725882649
  H   -2.63436867529343      3.96214990082079      1.74837417786597
  H   -1.64792762153656      1.99504360221242     -0.72317455149812
  H   2.98351736459092      2.64880379601354      1.89304962944344
  H   -5.57360012982624      6.71754350924591      0.38932535621999
