24
Coordinates from ORCA-job 5347optt
  Br  1.39851101206960     -0.32963124227076      0.46699367506979
  C   3.23766542887058     -0.03264011298889      0.10488249376575
  C   3.73622476543795      1.25626011564755      0.05281857070758
  C   2.94504971472308      2.51631631267667      0.23092341643808
  C   3.59926064943581      3.64254155819075     -0.56342648571333
  C   5.08485330701835      3.63815324761933     -0.31473520601826
  N   5.71535891847388      4.82618957072376     -0.29814519947023
  C   7.15470419388991      4.88799132687841     -0.12834142360096
  C   7.59966296280723      6.27710404717357     -0.22464898227546
  N   7.91821933893472      7.37351137158112     -0.30429662093083
  N   5.78643867536796      2.56748927210269     -0.15771339222547
  C   5.12554338335753      1.35395007965873     -0.16253616971151
  N   5.88178817317054      0.27038575903579     -0.34359774742841
  C   5.25777522873550     -0.89283733416685     -0.29859223375230
  N   3.96852805932618     -1.11525411814108     -0.07312043219498
  C   6.07422710718213     -2.07535929303287     -0.51926539716884
  N   6.71305510337763     -3.00813094227142     -0.69956377036931
  H   2.91513293206700      2.77533919140687      1.29454689971654
  H   1.91550361974071      2.37203337148488     -0.09045241215600
  H   3.16642182631820      4.60952766539881     -0.30928337691484
  H   3.44679683914125      3.48284874915440     -1.63482532073794
  H   5.19584074944325      5.67723322460860     -0.42934970788598
  H   7.65084147857124      4.28506254104148     -0.89166728791775
  H   7.44559653253949      4.47691563848835      0.84039611077465
