29
Coordinates from ORCA-job 5349optt
  Br  1.13797213150066      0.50032085329163     -0.45955165404838
  C   3.01702639082515      0.23644568629033     -0.25881266212517
  C   3.56531883524116     -1.02040993002287     -0.50157701450933
  C   2.74577219320274     -2.19994589400007     -0.95159963157425
  C   2.06496307230029     -2.94251166026190      0.20834631513173
  C   2.96176408846881     -3.99154494685764      0.85271696209828
  N   4.27233399674503     -3.47604094798082      1.24002395907610
  C   5.33602097029097     -3.61756802430725      0.27195958926091
  C   5.70720639977252     -2.37064460287921     -0.52878530664429
  O   6.64173569368660     -2.40338306994139     -1.28526702431885
  C   4.94738676037107     -1.09017813411935     -0.31333599494457
  C   5.67852891545622      0.02142011959809      0.05607617572902
  C   4.99253224266679      1.21431347648155      0.27023502454640
  N   5.68254808284566      2.35820978328903      0.65279854015030
  C   5.13696458684435      3.59834022844518      0.88885403754782
  O   5.80946323258213      4.54356144559749      1.20960534322174
  N   3.68032198644479      1.30805488655255      0.11448490931055
  H   3.37655660288173     -2.89109370404862     -1.51799682766214
  H   1.98949820090223     -1.84321153158668     -1.64943918926620
  H   1.16414110500698     -3.43971393113423     -0.15797774954361
  H   1.74785315172995     -2.21660442046181      0.95942853873064
  H   3.07664469915007     -4.83699265300891      0.15894659734124
  H   2.46827767227243     -4.37809208686353      1.74534510575414
  H   4.55451837755624     -3.84797582745820      2.13211479724291
  H   5.13624146292868     -4.40746129735444     -0.46501202134175
  H   6.26684869481374     -3.89983638614470      0.76917468602702
  H   6.75303675991096     -0.03983792400088      0.16888003625751
  H   6.68426226367664      2.29770242662123      0.76494047646947
  H   4.05026142992531      3.62667806626545      0.75642398208272
