26
Coordinates from ORCA-job 5359optt
  Br  0.98734535269025     -0.39689762808214      0.06582388919562
  C   2.83924567890562     -0.16256625303994      0.01879822664340
  C   3.43825756185572      1.06828726664675      0.07587440068454
  C   2.77550444407593      2.33554512548792      0.17087714741507
  C   3.50063971146955      3.47612206896876      0.22505389140592
  C   2.86787623205076      4.84220034252916      0.32139735731703
  N   3.29116373660850      5.75437461380442     -0.72804756447613
  C   2.98566623771591      5.28395076114063     -2.06640872593582
  C   3.13814975088042      6.39849974104597     -3.07657132692170
  O   3.38723774060997      6.21671995122038     -4.23390153448924
  N   4.88986287298835      3.51250462149684      0.17792368971107
  C   5.52602709372470      2.40063500378059      0.09214914670450
  C   4.87442202225984      1.11704274382020      0.03629845666098
  N   5.63075152174245      0.05136078266024     -0.05223963175322
  N   5.01122101964968     -1.09520065165688     -0.10537386448174
  C   3.63148976573687     -1.36770501982560     -0.08543119852754
  O   3.24988568666818     -2.51350122338486     -0.15309581735808
  H   1.69495737556913      2.36857215704809      0.19970118998391
  H   3.14195570003668      5.28233162848034      1.28260370978140
  H   1.78058201777766      4.74856840021196      0.29377854809618
  H   4.28944640647240      5.91029177443712     -0.63466750671607
  H   1.92867191415896      4.99137778167148     -2.09350446174446
  H   3.56736198126599      4.41856587438227     -2.40684666131892
  H   2.98485823859925      7.41553690892609     -2.66692686449195
  H   6.61200699359371      2.41148949381756      0.05829024044228
  H   5.60441294289348     -1.91410626558739     -0.17755473582703
