29
Coordinates from ORCA-job 5360optt
  Br  2.72020058288432      0.64129464043644      3.14175075721968
  C   2.86638082117080      0.89859958393634      1.27532581626597
  C   3.41914606617114      2.02403872599391      0.77602283773289
  C   3.59201704481546      3.32763243982861      1.48602665085792
  C   2.21402062230018      4.03747707909052      1.55748964915028
  C   1.35666930719935      3.96751762895550      0.28390682966661
  N   0.68351173417014      2.67238369816568      0.18564858406581
  C   -0.06169007925885      2.41652339863520     -1.04021474686172
  C   -0.86704710970603      1.14209092787867     -0.79995114672942
  O   -1.96406960808183      1.20945384846047     -0.28943871063479
  N   -0.31540389883630     -0.07151967866076     -1.10535141438069
  C   1.01661404351824     -0.35036561115008     -1.59794775995894
  C   2.08812113640544      0.24144625761153     -0.71462140987621
  O   2.83288186125888      1.13522817256884     -1.36738659668816
  C   3.58719470190907      2.07144928424228     -0.66961556300340
  O   4.25268118633759      2.83088112430302     -1.30704744344862
  N   2.18899773757070     -0.02153662451340      0.52818413671863
  H   4.29873880398987      3.94043673263500      0.92839481951253
  H   3.98122657558904      3.18534483487371      2.49305542781380
  H   2.38215823500080      5.08342676156121      1.81828025068594
  H   1.63730441646226      3.59705430080881      2.37631775550548
  H   1.98020650890144      4.10006344291012     -0.60506139723289
  H   0.63678865818562      4.79658063070460      0.28814858362316
  H   0.06125586509911      2.55651536162308      0.97982825220386
  H   0.64027954461828      2.32133497254515     -1.87322808168242
  H   -0.78921059732265      3.19889381769108     -1.28552307515216
  H   -0.85764019513038     -0.84817462166331     -0.75862883047420
  H   1.15894426590570      0.03884802846790     -2.60668689978033
  H   1.13472176887259     -1.43191915794013     -1.63367727511860
