27
Coordinates from ORCA-job 5363optt
  Br  1.00811817064623      0.13220373697215      0.08033772784424
  C   2.86752189404829      0.02607923409051      0.39541252327182
  C   3.56290217357035     -1.11883064800698      0.12386624492304
  C   3.03676804687045     -2.34204699454470     -0.42407609016214
  C   3.83388525739854     -3.40214829700458     -0.63363439570336
  C   5.27042266352457     -3.40873560870723     -0.32539421233942
  N   6.05788055332078     -4.40582959419077     -0.50883342035671
  C   5.79979990562373     -2.16944116663174      0.22602005588670
  N   7.16422156068665     -2.05104971086987      0.59402451175290
  C   7.64582019648074     -2.78362743142568      1.78332594064562
  C   9.15878863032018     -2.81033490801904      1.51204424375991
  N   9.29817429522440     -2.63446775908506      0.05859575797641
  C   8.17335762359264     -2.24357454513754     -0.36098829768291
  C   4.97900797034370     -1.10616795519591      0.42060845317070
  N   5.46298030969055      0.08284007459608      0.93768840757462
  C   4.67276805554429      1.14513835724600      1.14684344534521
  N   3.40170683623036      1.16596072271384      0.90296956669931
  H   1.98355743986946     -2.38630589656451     -0.66462867134988
  H   3.42288474136172     -4.31571552132870     -1.04872976441469
  H   5.55663102957227     -5.19894455547791     -0.90441506062968
  H   7.21738461704004     -3.78856447660502      1.78573577029928
  H   7.37241350382304     -2.26311386453857      2.70049801643783
  H   9.62740864837092     -3.73971482601456      1.83007672927437
  H   9.67386249862025     -1.98593900803028      2.01386983348773
  H   7.95188673935993     -2.01106655314770     -1.39692639819169
  H   6.45754836723449      0.10866613771829      1.13074303053832
  H   5.15129827163140      2.03073105718951      1.54796605194248
