22
Coordinates from ORCA-job 5364optt
  Br  1.25776317084925      0.45529609820898      0.07833268638105
  C   3.10327798227668      0.05679083658087      0.01563414280920
  C   3.56030028096897     -1.23508017385513      0.00865572981648
  C   2.95747221796779     -2.61344744127408      0.09772657330704
  C   1.71102813646413     -2.89969523831797     -0.74336759937933
  C   1.37039121392929     -4.31859702799923     -0.63918895402997
  N   1.16053919355102     -5.43715152179691     -0.50988955467004
  C   4.18454196083715     -3.50647173853771     -0.28183392867847
  N   5.32397817609300     -2.67980720321283      0.09821436702924
  C   4.96027781983948     -1.36536295029971      0.03063760172760
  N   5.81194583092767     -0.36001608520844      0.02075819569563
  C   5.21998710434618      0.83483689302079     -0.00281484824123
  N   3.92555466536956      1.10138819433907     -0.00393963193475
  C   6.11130238070717      1.98038199173193     -0.02643239307874
  N   6.82624129081054      2.87400261083763     -0.04375631554565
  C   4.21166828765505     -3.79419232718951     -1.73148940131844
  N   4.24053675724858     -3.97847711171981     -2.86140330658376
  H   2.72659597971095     -2.82407723956786      1.14657095498314
  H   1.88208178302354     -2.64856500002545     -1.79179932252435
  H   0.87076844690635     -2.30731455391445     -0.38639356264824
  H   4.16919655960112     -4.45090053684852      0.25894867370141
  H   6.26155076091646     -2.94354047495163     -0.16817010681780
