20
Coordinates from ORCA-job 5367optt
  Br  1.08045013838138     -0.33037901982773      0.09045982692378
  C   2.96056064040700     -0.16385784181685      0.05679569108450
  C   3.75408488267294     -1.24501475966308      0.05127514497711
  C   3.35127907595945     -2.64665765242812     -0.00347029953269
  C   4.46870741975735     -3.39392705798507     -0.02691390293598
  C   5.63958457503178     -2.51752959893563      0.02248263965506
  N   6.92588700649362     -3.03505087684193      0.04604068871420
  C   8.05672234605752     -2.43333527863259     -0.46862537505440
  N   9.23815366971386     -2.88304478013053     -0.45205024093870
  C   5.21432780548737     -1.22532834128261      0.07271138727532
  S   6.19557179646528      0.17974830399830      0.39426208445544
  C   5.18102041145046      1.56035072682590     -0.01681165647868
  N   5.63969333535052      2.71661125980261     -0.21189309974435
  S   3.40369895712109      1.51112307397461      0.00691680929532
  H   2.33040491037725     -2.98519982668270     -0.06591716495631
  H   4.52875969981002     -4.47018566611472     -0.10155962932862
  H   7.02432307287301     -3.98590642100003      0.36922635808627
  H   7.85796167061828     -1.47583367190171     -0.94449638913357
  H   9.30457066437120     -3.78317164209575      0.02489929814281
  H   6.65823792160049      2.75058907073766     -0.19633217050650
