24
Coordinates from ORCA-job 5372optt
  Br  1.01984496250753      1.48871789672776      1.11355313534049
  C   2.52249572312124      0.57204475411555      0.42008030397443
  C   2.60839695000014     -0.77420764438056      0.57197779064631
  C   1.72481831104308     -1.66145566409387      1.30648204837478
  C   0.57406940469374     -2.13764048203439      0.78707074411818
  C   0.83977975087544     -3.54530577660478      0.66629778972666
  N   0.89727918903193     -4.02017386415571     -0.51868096747799
  C   2.10043180482424     -4.53404285071424     -0.91037906479102
  N   3.27357831223813     -4.02774440300971     -0.74860868602894
  C   3.92338171550831     -2.84978150553898     -0.43661320248189
  C   3.71811238934678     -1.54670701082779     -0.02868293468731
  N   4.83307934358908     -0.67191860501257     -0.20014932193767
  N   6.13238734631392     -1.04875276315203     -0.43199966777006
  C   6.72955999790417      0.04100395959922     -0.69983595732108
  O   5.93211124686206      1.13968118303827     -0.67252021045781
  C   4.70734824938107      0.66909903490276     -0.34211215385428
  C   3.56124136140952      1.36656290828709     -0.13537462773026
  H   2.26846897885092     -2.30610479083328      1.99312646826135
  H   0.04019476686552     -1.63170064176113     -0.00684022833546
  H   1.35699142234954     -4.03741971515807      1.49546327126765
  H   2.05268090873529     -5.42392047131666     -1.53565519722049
  H   4.96937409868686     -2.97090851267814     -0.69895961751928
  H   7.77137199173234      0.17252619342723     -0.93330423778141
  H   3.50000177412908      2.43314877117407     -0.25933547631489
