29
Coordinates from ORCA-job 5373optt
  Br  2.22423792907029      0.10764691350265     -3.31262932360318
  C   3.45855541730820      0.16345084352243     -1.88304028014560
  C   3.62984854319849      1.29170255149593     -1.16171113064736
  C   2.71045987923012      2.46067271613398     -1.06830252495300
  C   1.52809634155731      2.10431250471583     -0.10809198009573
  C   1.93734828116257      1.52235497678294      1.26534595206218
  N   2.26639613312428      0.10264164102049      1.16786673689421
  C   2.89989444529931     -0.56771228695707      2.19113473384947
  N   3.71728764534336     -1.54312673865584      2.18402818203551
  C   4.33512282664726     -2.10454680059581      0.98069465548409
  C   4.51337178760529     -1.06657368827932     -0.09734634622774
  C   3.86896177628900     -1.08305666543000     -1.27840032759462
  C   5.16742316794924      0.18613585165813      0.30452026412427
  N   6.15063456739092      0.38072165946028      1.06013835188460
  O   4.56104180903832      1.32801999035427     -0.19116568127670
  C   0.72627794162409      3.30955612081594      0.09465698711439
  C   0.09724575794554      4.31422199929574      0.26248148036771
  H   2.29660672206213      2.72603480684870     -2.03829951061782
  H   3.25039685467091      3.31725805361999     -0.66685814723031
  H   0.90295006175406      1.35898453966328     -0.61288539543384
  H   1.10282812790250      1.65857179487800      1.95525777602110
  H   2.78803699390487      2.09512135576618      1.64792850224039
  H   2.39100363092230     -0.25478339942400      0.23858713471321
  H   2.61270848074404     -0.18537781423919      3.17215995462860
  H   3.73144849495061     -2.92873275506496      0.59037103764420
  H   5.28649999934107     -2.53391193975886      1.30203820046471
  H   3.41057396342721     -1.99435056633157     -1.64578110358837
  H   6.50612978705775     -0.50039332992879      1.42059691559673
  H   -0.46938736652110      5.20215766513061      0.41170488628888
