26
Coordinates from ORCA-job 5374optt
  Br  1.01950318317232     -0.38668319573427      0.01680056581831
  C   2.86837636515571     -0.53519173072394     -0.18717188380545
  C   3.54514336961995     -1.69034480235003     -0.10143564918243
  C   3.28635747905646     -3.06698713483657      0.13383001985138
  C   4.49773550486416     -3.70847012275113      0.08190362855946
  C   4.69318855345979     -5.19362125145224      0.19639776019637
  N   4.77494959610092     -5.84567241186500     -1.09946125332082
  C   3.63720659253711     -6.06349652170583     -1.83783365560458
  N   3.53274089519541     -6.30793640592622     -3.07635296848297
  C   5.58642359751397     -2.77538681960754     -0.17740849258002
  C   7.05338532857288     -3.08410006291786     -0.24605918403995
  C   7.43926004284726     -3.89780051632669     -1.40247807831288
  C   7.76547557267193     -4.56163213559864     -2.34563540555769
  C   4.99925160541072     -1.56225166607511     -0.28985495472348
  O   5.54847578561747     -0.37116544356550     -0.51785722439078
  N   4.73893760253391      0.77221303764059     -0.59094695411902
  N   3.52317296732292      0.65926742944460     -0.43759223215319
  H   2.31895317342910     -3.51078027087697      0.30528430197916
  H   3.86027977594719     -5.63287186972816      0.74676926572319
  H   5.60486301583329     -5.42035579123511      0.75201206540184
  H   5.62022561742522     -5.65657673232032     -1.62288849670929
  H   2.72970205966017     -6.05724061302728     -1.23077777499423
  H   4.43936501771379     -6.28011046022103     -3.54480069870141
  H   7.37402803366548     -3.60121190594114      0.66325880095694
  H   7.61073428310095     -2.14578092497017     -0.28035228344851
  H   8.06426498157180     -5.13781167732834     -3.18934921835991
