28
Coordinates from ORCA-job 5375optt
  Br  9.82018464675679      0.75663757473043     -2.12815178759876
  C   8.09588370597062      0.30083563689733     -1.55859518545317
  C   7.82760207439195     -0.76386357528614     -0.78496418027582
  C   8.85449051195725     -1.76099250587005     -0.31321509979093
  C   9.70672684039988     -1.31920600770247      0.89397291849751
  C   9.02161214750446     -1.36756712669539      2.26258184706072
  N   8.00817157155184     -0.33750455155215      2.35130162917339
  C   6.80566180425158     -0.69665286811525      2.41648956746179
  N   5.73393509709397      0.19312539945979      2.34915915863262
  C   4.85923504499891     -0.05457863139278      1.19316284468899
  C   5.65320899283351      0.07180848115370     -0.08919093184604
  N   6.53676147275378     -0.96130442035186     -0.31866494752316
  C   5.69720239313820      1.19252981483755     -0.81890205709304
  S   6.77253434896593      1.28776650723879     -2.18498406178762
  O   7.20049823516763      2.64624533165510     -2.34988432455784
  O   6.19791342388370      0.59295998795702     -3.30185881548957
  H   9.52617615301673     -1.96935811446567     -1.14587091599699
  H   8.34445419407350     -2.70096502259463     -0.07700231598397
  H   10.08047995076503     -0.30870223388594      0.72115428061867
  H   10.57513000799236     -1.98041186877891      0.93298325056313
  H   9.77780176969082     -1.18951211412141      3.02928089239043
  H   8.60585704599856     -2.37251600994411      2.43553527065938
  H   6.49516132187437     -1.75000084206965      2.48068497546466
  H   6.09854816196645      1.14098130395826      2.32029021413216
  H   4.03685228472032      0.65595130081230      1.20782511461723
  H   4.43587663283658     -1.05868375443440      1.28394584316455
  H   6.40558676914490     -1.79536159253585      0.22915809241480
  H   5.11945339630031      2.07733990109642     -0.59624127614311
