26
Coordinates from ORCA-job 5376optt
  Br  1.08270221995908      0.00912263928230      0.18516102240412
  C   2.96811162704922      0.06112326618619     -0.01092677924891
  C   3.62847369990586      1.23915344273219      0.04434076177050
  C   2.92255043014226      2.55274986088690      0.25508029356034
  C   3.64435797073501      3.68847606504141     -0.45862061855533
  C   5.11277628675375      3.64650555796589     -0.13849952981301
  N   5.74550349832233      4.86537250370887     -0.09835347109133
  C   7.11216369236882      5.12224172588206      0.10388388438017
  N   8.03780055387949      4.29122860075712      0.31661772024660
  C   7.39506106693862      6.54355157222192      0.04315409261575
  C   7.59173401865545      7.72254619335647     -0.01349687904660
  N   5.75337233732591      2.56141298071103      0.06031966326815
  C   5.08563654913278      1.32865583260073     -0.02828441532711
  C   5.86820482259016      0.23964060637808     -0.13421483821821
  S   5.32199807844704     -1.37813945444652     -0.25222309413789
  C   3.55756701920532     -1.27164054863994     -0.20256566009615
  N   2.84371293957172     -2.31467081241589     -0.31035677382635
  H   2.89724815972601      2.75616819157990      1.33108013485109
  H   1.89207703954190      2.49402639854756     -0.08129075152235
  H   3.21460426875926      4.64929906828722     -0.17366162248515
  H   3.52977865632594      3.58760340355589     -1.54193486656515
  H   5.17130668770413      5.67881139494981     -0.24850773746348
  H   7.66189520585272      3.34426909258711      0.33270598794917
  H   7.79539375693437      8.76628076859641     -0.05809172938871
  H   6.94414475724675      0.35105081797843     -0.15471456463410
  H   3.39682465692599     -3.15883916829115     -0.44260022962604
