25
Coordinates from ORCA-job 5381optt
  Br  1.18392670147291      0.11407483095408     -1.43368459100556
  C   2.86102038259339     -0.07805224424707     -0.58502930808031
  C   3.43653232664672     -1.24578348294609     -0.20897324544009
  C   2.85564727174498     -2.59746619315018     -0.24130615007134
  C   1.36582080124469     -2.82404775523553     -0.16076481966664
  C   0.96628013184874     -4.19784504688211      0.38614143590225
  N   -0.46027102517027     -4.31031568438008      0.58914555849711
  C   -1.31352543515865     -4.66225161657538     -0.42587544277143
  N   -2.57423932734857     -4.55254320900377     -0.48284590542212
  C   3.72529014784968     -3.61876525020980     -0.27372528847102
  C   5.18505028264473     -3.41025160579997     -0.33365420183720
  O   5.94226762124523     -4.25802969113004     -0.72802578410925
  N   5.66110910481482     -2.17774629806291      0.15130744094668
  C   4.84984228114812     -1.19897021085955      0.19829177845565
  N   5.42298714101599     -0.01702624631133      0.75708194596917
  N   4.99175806864652      1.11508103439713      0.56013923002734
  S   3.60639375244829      1.45336568149230     -0.38733753784165
  H   0.90442939104444     -2.69905845551237     -1.14286197681331
  H   0.92300111790289     -2.05796732178261      0.48024168480288
  H   1.47950704117017     -4.39146613683192      1.32984194201895
  H   1.26020080932282     -4.98916816261379     -0.30443645111668
  H   -0.85924798252120     -3.78617257818078      1.35381356978012
  H   -0.79363156106491     -5.12622504452871     -1.26654823240861
  H   -2.96002232841171     -4.10744722810268      0.35059383916476
  H   3.40687328487011     -4.65192208449679     -0.29252949050969
