25
Coordinates from ORCA-job 5384optt
  Br  1.28243389410748     -1.20998633906345     -0.18711965706127
  C   3.14102558941415     -1.07250138190752      0.09639526973317
  C   3.68696654962049     -1.13947692608151      1.39837748371087
  C   4.93397206096723     -0.53833627504354      1.51778604024216
  C   5.76577421154155     -0.49352189973220      0.39194311642099
  C   7.16413656415402     -0.22799622536998      0.49962957298450
  N   8.30028273243280     -0.06364493356828      0.53350738614076
  C   5.25662326513154     -1.14175069240366     -0.74610977431048
  N   5.99916756132496     -2.04773879738553     -1.52354857053243
  C   5.47938396403640     -3.40041827422811     -1.25251048589214
  N   4.68305321908989     -3.96897427925960     -2.03342031828025
  C   5.90682474899858     -4.07013870265929      0.05705441039365
  C   4.88796446054718     -5.05447713623520      0.69031519936120
  O   4.15874648056902     -4.48977362553213      1.81289813511200
  C   3.64678197478818     -3.31056934693067      1.46107490438264
  N   3.56962523465595     -2.29502001406832      2.22510305177377
  N   3.93938606452717     -1.14395667654529     -0.92964840918148
  H   5.37818723236892     -0.42804683795026      2.49931352851361
  H   6.98970010697752     -1.97926773698760     -1.30573743263374
  H   4.50600369309316     -3.39124536384692     -2.85450389065803
  H   6.18060752140824     -3.31209447600633      0.79567148238942
  H   6.82483625857005     -4.62192785724495     -0.16281155845031
  H   4.18399445367031     -5.39714579453550     -0.06885812007396
  H   5.40150236492871     -5.90782470507909      1.12145068907956
  H   3.42501979307642     -3.26816570233503      0.39174794683578
