30
Coordinates from ORCA-job 5387optt
  Br  1.28229792691088      0.45145753559571     -0.55061973322076
  C   3.14326590629948      0.18545079516642     -0.38526177723384
  C   3.71586411775475     -1.03833413902786     -0.49546746533922
  C   2.91349377169253     -2.25936116608416     -0.88349671761281
  C   2.21527993139279     -2.98470232637383      0.28102648134168
  C   3.16456986801903     -3.95066500058125      0.98780307751059
  N   4.46424980925411     -3.33398293783859      1.21996489606755
  C   4.63159218969672     -2.39646416365001      2.22837212491216
  N   3.80391392355963     -2.03854599266854      3.11506590079981
  C   5.43430362583076     -3.45369348640640      0.19700434227318
  N   5.91418976253815     -4.53991723813995     -0.24563398143469
  N   5.86101295250776     -2.25132328680968     -0.32819749852334
  C   5.15741793050080     -1.03884998120727     -0.30767317232001
  C   5.86268186281099      0.10757333729226     -0.14020566572546
  C   5.22851256482389      1.40433291197629     -0.10027931816166
  N   5.74255433076729      2.56610003173704      0.02881662564049
  N   3.83613113961804      1.32787948098331     -0.17109260276627
  H   3.56036900276232     -2.95938599428505     -1.41779793379459
  H   2.15791596957554     -1.94548402767520     -1.60220304676066
  H   1.36152955012437     -3.55145531332487     -0.09541025899639
  H   1.82220687329178     -2.24274320884346      0.97888805137705
  H   3.33259132621741     -4.82561322811302      0.36111506415222
  H   2.75776897812474     -4.30512061315349      1.93610276127285
  H   5.62846377923415     -1.95959839786542      2.23350173174383
  H   2.89884803513959     -2.49525540727717      3.02253896560003
  H   5.61523638851048     -5.32489741622574      0.32553958457139
  H   6.74082694185561     -2.28737188974624     -0.81881868107863
  H   6.93248941940869      0.06729287410644      0.01534563388809
  H   6.75366572544630      2.51053697455016      0.09004300894931
  H   3.34875639633134      2.20814127388960     -0.08197039713189
