24
Coordinates from ORCA-job 5388optt
  Br  3.02590775823605     -0.80876938671677      1.35276640823602
  C   3.21594074344454      0.23558074909472     -0.19318512257928
  C   2.85756787424057      1.51852963703130     -0.29188986315487
  C   2.18688492687102      2.32825079110290      0.73203151386264
  C   0.96315288998057      2.04976835248265      1.15775917330289
  C   0.14393819094566      3.05025120997777      1.88905728763803
  N   -0.29486181260338      2.94373107911669      3.07242233543577
  C   -0.23603224029725      4.32603912637619      1.18067909365446
  N   -0.11085098608350      4.63155607966797     -0.03950297526360
  C   0.41188442564694      3.73543074064283     -1.00159362772179
  N   -0.20231881573093      2.75769939346038     -1.52314920909916
  N   1.69756472948129      4.08015943604184     -1.34617730134497
  C   2.57687637328533      3.26319279219283     -2.08460242783174
  C   3.10344538495712      2.13253494797328     -1.59966537512998
  O   3.98631619802968      1.46163793651853     -2.40949222600055
  N   4.12892939096759      0.06579870817468     -2.29669167388879
  N   3.75966717758951     -0.48313925214424     -1.27382825776019
  H   2.65241156229118      3.27698642845107      0.97637209664737
  H   0.47336223213199      1.12918167622888      0.85744652960029
  H   -0.01122961281457      2.05724383938961      3.49370875402444
  H   -0.69110151617071      5.05404902646548      1.85144054752468
  H   -1.12850222027833      2.65873064395465     -1.11779388380769
  H   1.99401229908783      5.00667837732884     -1.08501870135781
  H   2.85103504679179      3.56887766718786     -3.08709309498618
