25
Coordinates from ORCA-job 5389optt
  Br  1.12934278448488      0.29603809941036     -0.60918900432600
  C   2.95638123521258      0.08444072791437     -0.22114879867835
  C   3.49052932405526     -1.10745238770830      0.11415577149953
  C   2.76957194968265     -2.41571686395826      0.24127183208980
  C   2.27052538217243     -2.63960416494605      1.60728387550937
  C   1.88801810826329     -2.81600087798038      2.72698336356199
  N   3.70491164600714     -3.46606832947681     -0.17113316325253
  C   3.25529625845865     -4.47167937825272     -1.03321685417120
  N   3.90959128375913     -5.35889965694483     -1.64056868207432
  C   4.95076048026778     -3.50747451427419      0.45967321553808
  N   5.65060005970663     -4.50714188623637      0.74802306346071
  O   5.46710487517370     -2.28743382856397      0.79441690752248
  C   4.89294123047398     -1.11580299696052      0.40872472168387
  C   5.65680574735219     -0.00565820078297      0.36686069336789
  C   5.07618622621137      1.27154846273189      0.00828736590797
  N   5.62299147658516      2.41848250615141     -0.09109736811233
  N   3.70111103681077      1.20889468631499     -0.27827315086514
  H   1.92714044939487     -2.43767358083080     -0.45073431888004
  H   1.54862948581067     -2.97288358028490      3.72366227658092
  H   2.17738686314797     -4.41700582357512     -1.18146214292871
  H   4.91287149676450     -5.30736688678862     -1.47124166902617
  H   5.15989051669617     -5.37546961192731      0.55923571134960
  H   6.71075453563578     -0.05847551997432      0.59736220373330
  H   6.61216676361382      2.37111037006008      0.12921006525893
  H   3.27849078425851      2.08929323688339     -0.53808591474967
