25
Coordinates from ORCA-job 5390optt
  Br  1.13013659591636      0.14088547489817      0.50906483346532
  C   2.98551642208049      0.04427290988054      0.24729011636875
  C   3.65114231754225     -1.13414971043829      0.13112659293540
  C   3.18416791991336     -2.49463529565818      0.16511157196637
  C   4.16967073871342     -3.38845606541806     -0.01174949423783
  C   4.04212375889577     -4.87432175020716     -0.05542582058320
  N   4.38941731945157     -5.37179061576348     -1.37306992492749
  C   4.34913949394930     -6.70655336595856     -1.66140603373958
  N   4.14418245166768     -7.69442135863221     -0.89286708817426
  C   4.60257386866380     -6.98107211436787     -3.07545556531134
  N   4.79048918396859     -7.14915687903070     -4.19202118109972
  S   5.75206628344166     -2.64811014318432     -0.23598748919560
  C   5.07542070710602     -1.04474415383017     -0.08719186636007
  C   5.74056722785721      0.13170215618325     -0.16667706481559
  C   5.01972285588005      1.37973804300398     -0.03616089256796
  N   5.44212592818808      2.58343332961613     -0.08545625159864
  N   3.63601352978554      1.22006902183752      0.17347213533605
  H   2.14914055075862     -2.76863820905337      0.31577300198400
  H   3.01506653380629     -5.14816420450343      0.21035863521924
  H   4.71108528162957     -5.33314311133979      0.68049661974376
  H   4.38187121076169     -4.71761193546359     -2.14008335029564
  H   3.96512679848816     -7.40707854162733      0.06710532622278
  H   6.80705896616613      0.18084851437100     -0.33497492784667
  H   6.44424119851807      2.61384049904239     -0.23922374038271
  H   3.12493285685024      2.08825750564358      0.26195185789465
