24
Coordinates from ORCA-job 5391optt
  Br  1.08449911834715      0.14624861488575     -0.12230598613956
  C   2.93870895372164      0.01943832710830      0.01341240606393
  C   3.62411659427608     -1.13253832657388      0.13032912377299
  C   3.22759497297542     -2.50811551902013      0.18277057817992
  C   4.37401156150309     -3.24015889738954      0.25673788930030
  C   5.52780362762952     -2.36826618526384      0.26462508295335
  N   6.85619218286492     -2.81983778393741      0.27342892192904
  C   7.75532037454617     -2.56218696069043     -0.72161041326289
  N   7.65656203664731     -1.81985872994373     -1.74935391243489
  C   9.07337671409650     -3.26648211058511     -0.52675864165125
  O   9.28878720929138     -3.97821292402376      0.41392871012688
  C   5.09009259162393     -1.07302626812385      0.20488037861660
  C   5.68739625507673      0.22923054566854      0.21061897603122
  C   7.13975861511075      0.49539077604283      0.42552894386964
  O   7.62143013806430      1.59273126372507      0.34121922133803
  C   4.87876997234716      1.30221276282163      0.09651556299970
  O   3.53416984287787      1.21552542575629     -0.01855753374423
  H   2.21367494687122     -2.87161588916417      0.15194804071204
  H   4.43942960122804     -4.31841296582948      0.29273668589922
  H   7.13537089529733     -3.54284333683701      0.92331385165599
  H   6.73418220503368     -1.39078020043950     -1.82951268873179
  H   9.80761714222210     -3.07182223004985     -1.32297267640234
  H   7.74890756303511     -0.37771867120714      0.70241195000014
  H   5.22422688531253      2.32409928307044      0.10366552891796
