24
Coordinates from ORCA-job 5394optt
  Br  2.26786655277662     -0.80904465569257      1.57797380239637
  C   2.72941585365573      0.22129717786119      0.08652593825018
  C   2.40249561568738      1.50212198338568     -0.09379225532767
  C   1.65305935506017      2.39882338791821      0.76924939800828
  C   0.45750497343533      2.15295599009507      1.30513791509986
  C   -0.39863793807582      3.22852008359315      1.83001376219749
  N   -0.46168188610307      4.40866178177889      1.36603884041374
  C   0.31721978142672      4.78996557493292      0.26730690474240
  N   1.00710784716095      5.84851860892186      0.31140427582467
  C   0.20336262957055      3.92598041025035     -1.00593700935613
  O   -0.83498552286042      3.40823109469027     -1.30557088194301
  C   1.39505048503345      3.92327340487519     -1.92049969627803
  C   2.50545267304237      3.18097040907234     -1.98307345453904
  N   2.98833090377348      2.10326916561324     -1.24577866293875
  C   4.20350665323527      1.54051889162177     -1.61230982250652
  N   4.55978202113213      0.35167338908324     -1.36717621521427
  O   3.52032373040910     -0.43844710504631     -0.78946328403836
  H   2.08539903127115      3.39007175943197      0.85813543180786
  H   0.01803714880210      1.16257614944232      1.24982575975455
  H   -1.08726029537323      2.97826806299352      2.63500791351433
  H   1.50789862916943      5.98983608462127     -0.56519251370672
  H   1.30621636985723      4.65116666799802     -2.71994315059381
  H   3.18536215392174      3.40949080150023     -2.79576637432561
  H   4.92617323399163      2.17030088105813     -2.11811662124178
