25
Coordinates from ORCA-job 5395optt
  Br  1.15531965597289      0.26795836801448     -0.31350815862570
  C   3.01238299293621      0.12540489334841     -0.09490039286930
  C   3.62764920925232     -1.09825872279260     -0.05776049170587
  C   2.96744840452939     -2.37144927758319     -0.18038185587634
  C   3.65571354750897     -3.52737907375887     -0.16277848821896
  C   5.08040730073670     -3.53534827139470      0.00798873081426
  N   5.74309326459709     -4.76431158331441      0.04315158177425
  C   6.98787883282249     -5.06502400729787     -0.43362790595170
  N   7.86422342193275     -4.36198647705530     -1.02516385432061
  C   7.33729932977042     -6.52006763299663     -0.22983972523736
  O   6.56588017510583     -7.30554859304851      0.24488033914534
  C   5.70500136880395     -2.34759123221810      0.15859588354594
  N   5.00632690824190     -1.15939223261272      0.10430043355859
  N   5.77274928896483     -0.05546047023107      0.23082426155680
  C   5.19616514532701      1.08875991980074      0.19312429718568
  C   3.76430052071418      1.34951256735114      0.02126971800811
  N   3.23660032646159      2.51535019848529     -0.02280326314439
  H   1.89592149702799     -2.36095369335697     -0.30581992030485
  H   3.14090586294183     -4.47311726898319     -0.27911533183004
  H   5.23348060934147     -5.56850650501342      0.38722258465840
  H   7.57504262636413     -3.40035001870586     -1.18817591551535
  H   8.34901078447514     -6.78638130499768     -0.56999215106053
  H   6.75704196428552     -2.21506179286577      0.35500339456372
  H   5.86228811306343      1.93918074240503      0.29886642188753
  H   3.94586884882188      3.23902146882179      0.07563980796238
