27
Coordinates from ORCA-job 5396optt
  Br  1.16935071693150      0.37587510101566     -0.25950025803906
  C   3.02469568973642      0.09593711792903     -0.08447447783323
  C   3.51592853272330     -1.18522893386663     -0.02746190607071
  C   2.93570373147490     -2.47362262790636     -0.06386671325214
  C   3.96268761670689     -3.38966167370602      0.03278944603818
  C   3.82866530482737     -4.88214726964808      0.07953230635966
  N   4.33444111251497     -5.45781448862667      1.31708161156143
  C   5.58943229629908     -5.99797482214210      1.40377687668166
  N   6.29174795537921     -6.22976662976488      2.43582606288311
  C   5.20776006415613     -2.70931038784998      0.13230553660120
  O   6.37095704159017     -3.46975155886499      0.16850476913926
  C   7.52355059761301     -3.01983459814098      0.63256331314447
  O   7.76384277988888     -1.88957379184300      0.96316788513490
  C   4.96344450735331     -1.35123451097800      0.10596456078851
  N   5.74184502160564     -0.23587175811798      0.17781138176393
  C   5.22501666558249      0.99888147005964      0.12592118970737
  C   3.87371241855357      1.20827906455966     -0.01399437776811
  H   1.88281858615558     -2.68995309043672     -0.14860134542365
  H   4.38475499090847     -5.34410642808571     -0.73920710109294
  H   2.77918532863049     -5.14989289694037     -0.05075107682172
  H   3.96474770812122     -5.05431945693560      2.16637672066657
  H   5.99006033616032     -6.28136392203379      0.42999731941818
  H   5.82661007926047     -5.92013787422239      3.28990984392002
  H   8.24547210387329     -3.84034376932525      0.66928177088631
  H   6.72813904375411     -0.38834932201917      0.36557561172588
  H   5.93093976124115      1.81183438961969      0.20900167136248
  H   3.48349000895796      2.21245266827105     -0.05853062148158
