25
Coordinates from ORCA-job 5401optt
  Br  1.14080451793566     -0.02639281100878     -0.22614441183936
  C   3.00288410501273     -0.18338859437760     -0.03830721841852
  C   3.67651643996069     -1.33795547822803     -0.21403890389030
  C   3.10036516616833     -2.62723885829656     -0.46295897303066
  C   3.81125813925502     -3.74532156289764     -0.24717285491649
  C   5.14947245670871     -3.70570583802294      0.33416852496481
  N   5.84014782568007     -4.71588822745624      0.67834212972882
  C   5.76980858225311     -2.35075402661925      0.58432923348876
  N   6.86846441929212     -2.16361107812819      1.17755704561708
  N   5.08022696947233     -1.28578939331224      0.01146266911130
  C   5.70275919070592     -0.04843471965786     -0.24293005523186
  Br  7.37918933551965     -0.05955327809925     -1.11209891369190
  C   5.01418900230006      1.08572296260763     -0.11255288879024
  C   5.52377919999504      2.45794519391626     -0.47394021236890
  C   4.79279985253789      3.52283944044813      0.20847754545242
  C   4.16581002698662      4.37587851615367      0.76809523687377
  N   3.66695043837433      0.97987122395001      0.25163408313894
  H   2.06620147880557     -2.67242226550451     -0.77561910542615
  H   3.37466297245186     -4.72117111567923     -0.42279325814559
  H   5.35196241152511     -5.58618790332673      0.47153983596150
  H   7.25650490634923     -3.07144212433823      1.43413531521107
  H   5.44344814742335      2.60389111073615     -1.55588032776269
  H   6.58315139506597      2.51999973793764     -0.22519078798654
  H   3.63235719842188      5.15082633970796      1.26556925272043
  H   3.15428582179866      1.82128274949585      0.46831703923031
