23
Coordinates from ORCA-job 5402optt
  Br  1.23205849200620      0.29453968914445      0.03484274346028
  C   3.08488822675143      0.08241572420118      0.20251186470880
  C   3.73358143705136     -1.07158119689452     -0.03393783758045
  C   3.10810491002995     -2.32391480336710     -0.35245357314826
  C   3.79120387876738     -3.47526810282741     -0.29162205816715
  C   5.17379858528166     -3.52498108323637      0.17061858435712
  N   5.85127116510966     -4.57849151798753      0.37874178657068
  C   5.86878984648524     -2.21556520712562      0.45867611263070
  N   7.04314070832659     -2.10906964306719      0.90556020409999
  N   5.14567566927382     -1.07068210308893      0.12577179438377
  C   5.79952184046292      0.17135952177451     -0.02138054394074
  C   7.11903664579479      0.22756481380241     -0.56636562209660
  N   8.14804416488728      0.35682201506124     -1.05674672529993
  C   5.11898560828676      1.31058588858181      0.20243663847231
  N   3.77087693549468      1.22607041554789      0.57968061043952
  C   5.66550469116876      2.60919876433821      0.03320041582621
  C   6.10315533605068      3.71817207137934     -0.08415938592605
  H   2.05642044038359     -2.31267570691745     -0.60193079194427
  H   3.30769957317047     -4.41719330342591     -0.52055116281291
  H   5.31456970249521     -5.41592604830484      0.15678898091273
  H   7.44299559319076     -3.04045097353178      1.01397849290173
  H   3.25644803463337      2.09180543121386      0.61249916605085
  H   6.51122851489738      4.69526535472974     -0.19415969389834
