28
Coordinates from ORCA-job 5403optt
  Br  1.12308683726225     -0.25051675814761     -0.63399454096922
  C   2.97938336235871     -0.20961639591946     -0.35177366387422
  C   3.65362960021161     -1.26607463634337      0.12621415444706
  C   3.00453715662953     -2.54632888102605      0.59367294948215
  C   3.06929229844747     -3.71917717286132     -0.39050244002735
  C   4.49259591727766     -4.29520802898609     -0.47937745383043
  N   5.48603924854508     -3.26546794143327     -0.72844058274260
  C   5.77513391170057     -2.39223199837500      0.33933740369259
  N   6.61981599775252     -2.61502262050560      1.24805366768258
  N   5.04211239117703     -1.17638341978453      0.32598916742065
  C   5.71949402440241      0.06038744391905      0.34986689831957
  N   6.89598315741407      0.29070115012355      0.73954440698384
  N   4.96754365158757      1.09458925486729     -0.18157607004280
  C   3.65687842668892      1.06739482402567     -0.62873211650173
  N   3.05010415125793      2.03578811011419     -1.17955453975010
  C   4.52049354394933     -5.33616796904981     -1.57450682771117
  O   5.11960271191675     -5.20650709527771     -2.60090696418832
  H   1.96313699304868     -2.32580033670594      0.81172883589071
  H   3.48326218949638     -2.83302457229469      1.53490391899887
  H   2.75013462012187     -3.37900098936450     -1.38058945662507
  H   2.37071457666931     -4.49638927328815     -0.07367676944785
  H   4.73789826870374     -4.78900385196301      0.46662401220914
  H   5.27261260894603     -2.76601921515882     -1.58601025498377
  H   7.12898617539683     -3.47147440991554      1.03471332170586
  H   7.32652771827900     -0.53159526632426      1.14860195975872
  H   5.46733503463472      1.97140966532843     -0.20939428653959
  H   3.64897495554313      2.85184513203094     -1.28775137989887
  H   3.89169047058084     -6.22710474768434     -1.38246334945864
