24
Coordinates from ORCA-job 5405optt
  Br  2.12683909207043     -0.75480143729852      2.72243367664326
  C   2.62293871188727     -0.18815191894832      0.99952170693585
  C   2.48985869404090      1.08595308972070      0.64213249439791
  C   1.97546254054262      2.28351455189699      1.31732151298139
  C   0.94604254415413      2.83697513258206      0.67616579772874
  C   1.19951585209850      4.14531005470211      0.02676889822251
  N   0.48064871463880      5.17390472791597      0.03772248161963
  C   2.52347958153930      3.94243101521267     -0.76361911868299
  N   3.31867797877454      4.89903270788087     -0.99506068612665
  N   2.86395985415517      2.66917258717804     -1.23521423639567
  C   2.88782908859074      1.51008084587392     -0.72946082842993
  O   3.31915179185475      0.52446665146459     -1.55964853929523
  N   3.43963627311025     -0.79185700187647     -1.18479891753346
  C   3.12892486320649     -1.14556190282561      0.01208988577495
  N   3.25266243444686     -2.46213103996780      0.37564550089254
  C   3.66696984061036     -3.54387142443341     -0.41126637792009
  N   4.04147744080414     -3.57192193889897     -1.60996332400613
  H   2.73181906588001      2.92411937563975      1.76565097699469
  H   0.26967154819536      2.18919647920385      0.12179537640198
  H   0.85475128594853      5.89898735850290     -0.57933961740845
  H   2.96455757077170      5.77099019490386     -0.60483520043945
  H   2.98600918128155     -2.68097230748593      1.32173233855702
  H   3.63731938386454     -4.46528145077779      0.16913499465050
  H   4.02979666753298     -2.65358435016548     -2.04690879556292
