23
Coordinates from ORCA-job 5408optt
  Br  0.96840811641921      0.11951634931417     -0.12481034077813
  C   2.80800892853891     -0.04459611423604      0.07306794166335
  C   3.51007818043784     -1.17198965651026     -0.01469085869026
  C   3.21944848920064     -2.57029147366762     -0.25624914657169
  C   4.40093251364844     -3.22013208157099     -0.20453365158855
  C   5.50234173899402     -2.28401329221524      0.07368939441340
  N   6.81857527422036     -2.70458053410633      0.19713013296490
  C   7.91110223498438     -2.03569096477062     -0.29396636416483
  N   7.99214143012040     -0.93621846518255     -0.91393691754988
  N   9.13444092338691     -2.70408821442730     -0.06251212914991
  C   9.36833677320087     -3.93419481985957      0.46146769473744
  O   8.53253905337665     -4.71188604663352      0.86791037047958
  C   4.93776404303114     -1.06296546077845      0.19196489276977
  O   5.50559099401889      0.14747672598384      0.49696082536090
  C   4.76349013987117      1.26339298780847      0.55773057955220
  O   5.22091797812244      2.32289524213065      0.79583258593633
  O   3.41044418561389      1.14025160428525      0.33071931459732
  H   2.24240037786212     -2.98136703749561     -0.44834610258932
  H   4.56002593615198     -4.27854130770685     -0.35192826153589
  H   6.99492581359966     -3.64442371849070      0.53843904949238
  H   7.09412109241255     -0.48900588936607     -1.05009089152638
  H   9.92279487260198     -2.17346216834507     -0.40275735890822
  H   10.44117091018534     -4.17208566415953      0.48390924108547
