23
Coordinates from ORCA-job 5411optt
  Br  0.97976028894844      0.01051490479704      0.47975942633847
  C   2.85519565387340     -0.03202532186598      0.23828524870972
  C   3.57184355479558     -1.22212489390458      0.31562857827212
  C   2.94595280237561     -2.57065412182523      0.56458892262678
  C   3.38449970683755     -3.18441479289938      1.92007355208977
  C   2.61211743675069     -4.38997125763913      2.21061442984564
  N   1.97562945845855     -5.31986106389775      2.41464946022583
  C   3.19879650504995     -3.48792041901775     -0.61969620243944
  N   2.38742924831508     -4.22091182805497     -1.21539627225229
  O   4.48376578211169     -3.43512565123188     -1.13425879219605
  C   5.54403099560197     -3.38831327096453     -0.28459842638928
  O   6.24669070034572     -4.30971984699295     -0.06397008520497
  O   5.78513516778396     -2.17886019154801      0.26231030696599
  C   4.95117687472184     -1.09174876073480      0.11651041798036
  N   5.58983074858684      0.02489170377021     -0.12063642710217
  C   4.87157981418054      1.14191643309799     -0.18480830517980
  C   3.50029954780896      1.16990566097116     -0.01138074305844
  H   1.86760503385093     -2.44534833203624      0.62003927160671
  H   3.19385126412232     -2.45246941003593      2.70657023226546
  H   4.44680815232607     -3.42782977254371      1.95563029060895
  H   1.45841362317910     -4.16683843011839     -0.80500641961333
  H   5.41872633989605      2.05533792045738     -0.38375771044974
  H   2.94686130007909      2.09557074221743     -0.06615075365029
