24
Coordinates from ORCA-job 5412optt
  Br  2.27715190706525     -1.47093509441388      1.46890983576366
  C   2.99036007563505     -0.15262029810059      0.35168460210821
  C   2.83184204951168      1.16076774814757      0.55341723998795
  C   1.95468130307642      1.88310324471087      1.48711232089556
  C   0.64352212527577      1.98206263335910      1.24439220045643
  C   0.20173290963746      3.37567837051285      1.14673050095055
  N   -0.37345464289907      3.65569628864572      0.05367660238424
  C   -0.08818746884978      4.79559903142613     -0.67331729121658
  N   -0.73611024410394      5.86612188008353     -0.70105009146046
  S   1.32596975060696      4.35593933578388     -1.79564748685798
  C   2.64939832808773      4.46193708373468     -0.62605459996330
  C   3.46552420483700      3.49093751882773     -0.22532211334164
  C   3.45533460736011      2.01518662066134     -0.47343276249764
  N   4.06621477397125      1.55206768963780     -1.49887886264608
  C   4.16988495628050      0.17622631885537     -1.67594153075630
  N   4.70034365940381     -0.41461292941648     -2.64402693411602
  O   3.66291757236472     -0.65861484624006     -0.67363475848289
  H   2.42926056421363      2.68207130317189      2.04858992620041
  H   0.13077531292481      1.27453781462945      0.60405237184455
  H   0.68774167051908      4.12326273421245      1.78047836449146
  H   -0.36198824947045      6.51320005974841     -1.39052934451317
  H   2.84655969843694      5.46297220356703     -0.25805652505783
  H   4.26620216616855      3.78457266650369      0.45209916524731
  H   5.04832296994651      0.27784262195150     -3.30125082942045
