25
Coordinates from ORCA-job 5413optt
  Br  1.31632174585117      0.26463781577097      2.86300402651739
  C   2.60277932701688      0.36884110863275      1.47076965788254
  C   3.12119463969130      1.69898597974432      1.14830309096076
  C   2.19674061261555      2.84449756329923      1.30096097669350
  C   1.63345181872144      3.60926129321261      0.36430466543005
  C   1.63695889853776      3.57923631388341     -1.11480937765266
  N   1.96240345179076      2.69693515065032     -1.95151361371137
  C   2.53971541083044      1.48153486348391     -1.92959191833512
  N   1.89035150996136      0.37429918936795     -1.87873808186079
  S   2.86314199144457     -0.98190488510906     -1.95308300160919
  O   3.76766451571773     -0.89987081409996     -3.05355394564316
  O   2.03398836931851     -2.12629792015519     -1.75672321647100
  C   3.74857292167801     -0.63372366208492     -0.41505482341883
  C   2.89383767490416     -0.73637560402064      0.77086264349421
  N   4.83987512709580     -0.01610945205256     -0.54616856113953
  C   5.32273196866441      0.67892934837597      0.64895590268833
  C   4.40083330768456      1.85734908395636      0.76960224072930
  H   1.93412109539287      3.07557524396295      2.32893649111573
  H   1.01534448016169      4.42131864848568      0.73230006616275
  H   1.22334073665884      4.49111563731257     -1.54692215407279
  H   3.62367136510535      1.52395173354911     -2.08163290975463
  H   2.36556782936231     -1.66491331881341      0.94379412955711
  H   6.35256605104525      0.98297781420010      0.48951961790599
  H   5.25562933481034      0.04399667036710      1.53853841514602
  H   4.75419581593891      2.84375219808042      0.49193967938541
