29
Coordinates from ORCA-job 5418optt
  Br  1.17886045259060      0.04390297690336     -0.06514894422211
  C   3.05490095125950     -0.06924361204494      0.00201451946595
  C   3.67150351767227     -1.27479076786845     -0.00322444876307
  C   2.90669498130682     -2.57799145632857     -0.01544620590121
  C   3.77883365746135     -3.82207142960565     -0.18587083793841
  C   5.08456839579732     -3.68153232850052      0.58226311836184
  N   5.79493817784571     -2.52705891168305      0.04824427627069
  C   6.90575368810944     -2.71152051329447     -0.72507295561188
  O   7.50976721960626     -3.75100413761307     -0.82810242959860
  C   5.11245473123487     -1.29242088147807      0.08684834168983
  C   5.78187364121459     -0.12840233954667      0.20528318098095
  N   5.14701855365589      1.08331193659953      0.16103274326249
  C   5.95238554831048      2.29247484197333      0.24682887743222
  C   5.91383526074892      2.91219284696141      1.57395235857734
  C   5.87763681203757      3.40582877225638      2.66254736371683
  C   3.75145826747898      1.21687821304650      0.11246185338322
  N   3.11056804386966      2.31790742262037      0.16522397350839
  H   2.13973560613532     -2.53477450846442     -0.78862265256900
  H   2.36329882841999     -2.63471459291157      0.93351130453951
  H   4.02345049492958     -3.97707385597704     -1.23907381615583
  H   3.23044336503080     -4.70160304085460      0.15258679542455
  H   5.73172170422194     -4.54554706959533      0.45628083361090
  H   4.90118912417834     -3.52576578159526      1.64850127643271
  H   7.20363231836503     -1.79534610253748     -1.25847061704844
  H   6.85394361296397     -0.09804540884160      0.33712239016285
  H   5.60096753118001      3.00126184882238     -0.50681071622640
  H   6.97901651901629      2.03451668557218     -0.00927839648924
  H   5.83697533464609      3.84384803414552      3.63158885503362
  H   3.69557366071233      3.13078315983981      0.31882995867030
