29
Coordinates from ORCA-job 5420optt
  Br  1.10424016627901      0.10186269767077     -0.06484726356951
  C   2.99978553955603      0.05110769810017     -0.07520551055885
  C   3.65390207062773     -1.18207180359724     -0.06193405329916
  C   2.92474710261504     -2.50081524460453     -0.09186559221666
  C   3.86775484533505     -3.65539459310944     -0.40256312458057
  C   5.13700481306404     -3.51806658671147      0.41782375032710
  N   5.80976851808474     -2.27153256795183      0.07110321553945
  C   7.16500126065733     -2.28705052606897     -0.16683158830639
  O   7.84769488022862     -3.27681846709643     -0.06063828911003
  C   5.05033064205281     -1.09609191986884     -0.01888390428492
  N   5.73382456920159      0.04722422872530     -0.03365724189687
  C   5.06996749737392      1.19378485791468     -0.08857628554010
  N   5.80929716360953      2.34019931982725     -0.14514908508333
  C   7.24585606443752      2.31100224899213      0.05527646674437
  C   7.77294276660786      3.67233771783215      0.07069176027976
  C   8.18456261129472      4.79549891309039      0.09157791738948
  C   3.66764915319074      1.25066301940694     -0.09093297420607
  H   2.12412632840756     -2.45413395081913     -0.83097625389772
  H   2.43767532782365     -2.66603430468685      0.87460768038722
  H   4.13382692555324     -3.65149990539465     -1.46196683029208
  H   3.38565229216830     -4.60869743377376     -0.18649102067747
  H   5.84519962054538     -4.32063811417748      0.23083040170859
  H   4.89944141799546     -3.51228841091796      1.48638708019997
  H   7.55496706958572     -1.31218767909317     -0.47166341891982
  H   5.34089316538561      3.21419669322344      0.02172064487820
  H   7.71694122750410      1.74118789096163     -0.74858373285694
  H   7.50142596512974      1.80362606218822      0.99109710767899
  H   8.55819883869405      5.79147012980959      0.10729417594313
  H   3.14032215699082      2.19316003012910     -0.10464403177977
