27
Coordinates from ORCA-job 5433optt
  Br  2.73952868029798     -0.02229204925001      2.74494641449386
  C   2.73015155716595      0.28556087879790      0.87452627486514
  C   2.96706492114603      1.53044875014753      0.40598246059835
  C   3.10206212221439      2.75382430152461      1.28258984801776
  C   1.78788510519155      3.21236827745858      1.94322469220164
  C   0.69825218941755      3.69267177127533      0.99341834397539
  N   0.24869504207489      2.62851071037900      0.10933633668423
  C   0.10756116314657      2.84648706497110     -1.21662029477421
  O   -0.02036417771847      3.94086645507539     -1.72142542521238
  C   0.11315679418680      1.60180857918133     -2.09957534199303
  O   0.84776310045571      0.49836583650191     -1.57578495054292
  C   2.19487222344641      0.49949709801697     -1.75989043979585
  S   3.05995009228945      1.97974582608326     -1.34432052770421
  C   2.85289534535692     -0.60180477421469     -1.32987687595060
  Br  4.68000451165597     -0.87986406465934     -1.70268446149547
  C   2.46456114374361     -0.96866206625539      0.05945359049325
  N   2.06835459404061     -2.03913699348527      0.58357909495234
  H   3.51102808511817      3.57689435706022      0.69177610729072
  H   3.82423886838334      2.52828713650787      2.06968787116383
  H   2.02814994150523      4.03606195367046      2.61840595190560
  H   1.39668112217999      2.40772666266838      2.56771942162313
  H   1.05330825480829      4.50364633631537      0.35446096174115
  H   -0.13799097642379      4.08483177563582      1.57644054200167
  H   0.39462877997934      1.67367231135333      0.40307645814045
  H   0.50535887235706      1.90320778441231     -3.07061698829782
  H   -0.90673007932731      1.24002492770208     -2.22435921409387
  H   1.95293272330770     -2.76274884687407     -0.12446985028817
