27
Coordinates from ORCA-job 5434optt
  Br  1.33461644692229      1.36138028121910      2.80242215489751
  C   2.25837640961001      0.97087780261317      1.19797977844304
  C   3.13674558266256      1.81292278800952      0.63204797841943
  C   3.18639880663325      3.29376108930523      0.82698353505405
  C   2.42163436301765      3.94910579789208     -0.35217749081715
  C   0.89239932021599      4.06193375787448     -0.24596962641459
  N   0.15273641042068      2.84667232480403      0.08606312594047
  C   0.24856346466595      1.70232468121541     -0.61275728504584
  O   0.84934862752762      1.58047169584004     -1.65837912269042
  C   -0.42473873152595      0.48846374623086      0.08801499564877
  O   -1.61282466005860      0.44176592203303      0.28220775838918
  N   0.45495271477898     -0.50241579449595      0.45043263892859
  C   1.83693469076895     -0.20120583345620      0.44275136091244
  N   2.57428668244052     -0.71550509753331     -0.46661297764475
  N   3.76143338601246     -0.11938193051449     -0.66192160357067
  C   3.99601043160820      1.23634336554075     -0.41817413626452
  N   4.91287915602315      1.93124195705867     -0.96308779568767
  H   4.22218162230036      3.62759227509490      0.79198223556907
  H   2.74955691316034      3.57750539476520      1.78379691576544
  H   2.68852254935061      3.43343535607868     -1.27328665798647
  H   2.78237739537144      4.97436523837425     -0.45759180657623
  H   0.52365972136016      4.45145798674370     -1.19744516189852
  H   0.63180815606275      4.78581557490179      0.52633683527154
  H   -0.39440881115224      2.82847876214498      0.93143566346307
  H   0.07179573295022     -1.30185876138453      0.93456748728536
  H   4.28097046813822     -0.53765329520510     -1.41926207228569
  H   5.44778315073439      1.40710491484967     -1.65235672710547
