27
Coordinates from ORCA-job 5440optt
  Br  1.13402563203959      0.24417093410245     -0.79918295064954
  C   2.94097864761308     -0.01301900772443     -0.33503378736537
  C   3.50770228649015     -1.21328837970440     -0.10288724565974
  C   2.97434712700776     -2.62707885147686     -0.06039149355000
  C   2.26729224839787     -3.02122705375905      1.24218311663222
  C   0.93363317351179     -2.33015437715208      1.49541005875862
  N   0.22129962376154     -2.94934638615461      2.59892107525686
  C   -0.44019871182340     -4.11552129678819      2.42451675360795
  O   -0.48216306864415     -4.71610493563582      1.37465811743650
  N   4.22050152974207     -3.38157213223796     -0.17035541796582
  C   5.36623163255148     -2.66416733341253      0.02725917593977
  O   6.48765260905229     -3.08973113200348      0.13673600386378
  C   4.92645609801924     -1.22728471338015      0.03501053115005
  C   5.70950020038780     -0.13271387219029      0.05633214236914
  C   5.09214302404484      1.17567750163648     -0.08144014749334
  O   5.64092196395090      2.25446224106176     -0.05229144092058
  N   3.70128270809681      1.11436333237252     -0.31064174868623
  H   2.32035953143315     -2.82976303526408     -0.91370217948438
  H   2.95038021695492     -2.83239664924210      2.07477298484353
  H   2.07967822491090     -4.09699455491722      1.20148635849545
  H   0.30090290327209     -2.40125077450599      0.60933046719272
  H   1.07275015224004     -1.27531247258915      1.72770035098520
  H   0.22017993486384     -2.51955793329595      3.50782806622999
  H   -0.94510551700352     -4.47052270214016      3.33629779050318
  H   4.23823500673375     -4.38757854072796     -0.10721162462552
  H   6.78577601176227     -0.19291364101435      0.13612768462586
  H   3.26723681063284      2.01182576614363     -0.48043264149031
