23
Coordinates from ORCA-job 5442optt
  Br  1.61027900640573     -1.29882396266285     -0.11786247913422
  C   2.33641951557088      0.31126699963377      0.52510627069915
  C   2.14331502932732      1.50633916140067     -0.06229159922280
  C   1.44962553559996      1.52708473217840     -1.36982555856615
  C   0.33839972902630      2.17609017314393     -1.71862720693449
  C   -0.34521080520360      3.11216912311739     -0.83462281094959
  N   -0.19113560528024      3.06331575582991      0.42219193020966
  C   -0.49751038900991      4.18709281506128      1.18199421431414
  O   -1.43259666435370      4.36391257910540      1.88895029443396
  O   0.49545579564222      5.12749468709840      1.05973240294210
  C   1.57948152168335      4.86013162088500      0.21070690544663
  N   1.74747749266492      5.51081513706374     -0.84386708108237
  C   2.59964995729394      3.93405443946138      0.75346740195512
  C   2.80601733471996      2.61538724684757      0.65281263529716
  N   3.98620055091066      2.22450279394802      1.38960156177834
  N   4.11357310080216      1.09754619497326      1.86634817974547
  N   3.12103232679003      0.18009379982172      1.63802404370293
  H   1.88921795466466      0.87089405538465     -2.11510852748111
  H   -0.03352069494561      2.07955137785823     -2.73035343352230
  H   -0.91977303081313      3.91148544399907     -1.31289265554381
  H   0.98116513831112      6.17001389070416     -0.98906243136600
  H   3.34914538015242      4.45221485480301      1.34442927808938
  H   3.35529182004047     -0.73863291965620      1.97914866518881
