30
Coordinates from ORCA-job 5444optt
  Br  2.22815084993959      0.35946896313411      2.09876138416178
  C   3.63348595118954      0.08856575778825      0.87176228419564
  C   4.30987245172152     -1.06228197762024      0.70868390024941
  C   5.41010983060726     -1.03813830335863     -0.22924183041252
  C   5.73008672573245      0.04581209045104     -0.95696692446194
  C   4.95239395696309      1.26875467724543     -0.82870125080397
  N   5.06337104892170      2.37378087096971     -1.45647832796012
  N   3.94171617960366      1.19233754764864      0.13950587679549
  C   6.08173567082446     -2.39011918086942     -0.17186070175053
  C   4.89662315751881     -3.28219021322229      0.21739071407884
  C   4.25346147932714     -2.44152155637042      1.34628294580665
  C   2.85660232938154     -2.93904896178495      1.72670356965558
  C   2.89991609903184     -4.35963584632797      2.07478942828494
  N   2.98205171346682     -5.46973804320454      2.34796265366955
  N   5.10141808744843     -2.45245826826972      2.54548347058188
  C   6.45271960883525     -1.93813547258225      2.29748163115117
  C   7.09640038771353     -2.42311740179345      0.98856820300998
  H   6.55565510244002      0.04551670054452     -1.65698624632748
  H   5.82293227785619      2.33370350804907     -2.12797211603263
  H   3.39928114858463      2.03686241409419      0.25387688492006
  H   6.55513754585386     -2.66510109344767     -1.11319816530857
  H   5.19277903474841     -4.26948810292653      0.57342904181319
  H   4.20130909225919     -3.39799109718096     -0.61738649987925
  H   2.16177527834139     -2.79954016588977      0.89698632072557
  H   2.48410180654046     -2.38961912101903      2.58953662951069
  H   5.15061728639358     -3.40522031079357      2.89711482983143
  H   7.07479884118648     -2.20443108105654      3.15102101999634
  H   6.39247514442337     -0.84767197065792      2.28051127499300
  H   7.45183193553574     -3.45117626891640      1.09681651250817
  H   7.96018997760998     -1.79617809263269      0.75812348699767
