22
Coordinates from ORCA-job 5446optt
  Br  1.31121533487947      0.71020266679066      0.26700474283475
  C   3.16027667916996      0.50320545858295      0.07656909396936
  C   3.98949860568238      1.53274690879287     -0.16243203593697
  C   5.43934633463895      1.22379707365656     -0.24151752288625
  C   5.90852649041071     -0.02369895241267     -0.11216595261973
  C   4.98511167446723     -1.13499475340956      0.11876404440530
  N   5.26234944338556     -2.37074244875753      0.25601936216268
  N   3.63941123330406     -0.76566673212595      0.20950827947472
  C   6.13272185266503      2.53876222908971     -0.39633211881537
  C   7.13862073216404      3.31078006920203      0.07806462604383
  C   6.66039876047231      4.73788296478682      0.12810268723517
  O   7.19067606499846      5.70165622838332      0.57451408234840
  N   5.26843985886182      4.71369614633372     -0.39608460779077
  C   4.03325356569238      5.05870368797824      0.16667928539090
  N   3.15951977105179      4.07942454494601      0.18051644973598
  C   3.85147246619939      2.98707343211043     -0.33760335871256
  C   5.06717310234084      3.41680687191292     -0.73089690914620
  H   6.96484259030219     -0.25223207456469     -0.15846760293639
  H   6.26128148990866     -2.53205666135930      0.17685224972782
  H   2.99839530072331     -1.52551984896424      0.38907148594221
  H   8.08070293214479      3.03849583384730      0.52600790796589
  H   3.82976571653662      6.05967735518041      0.51482581160722
