25
Coordinates from ORCA-job 5448optt
  Br  3.73558613340830      2.65372006871501     -4.43266298111752
  C   2.04008169914261      2.30516872702584     -3.73458506638975
  C   1.59208263071737      2.81972502990177     -2.56951512782608
  C   0.25399746734786      2.48870195194791     -2.15174875140359
  C   -0.54876027415474      1.67796901429385     -2.85842251516806
  C   -0.06374579179410      1.09532943912455     -4.10455051214013
  N   -0.64676141893084      0.29223191237541     -4.90114532822010
  N   1.23958854196387      1.49387516458702     -4.45962384875454
  C   -0.01669513746750      3.20765318149099     -0.85792757867997
  N   -1.04633741103319      3.27725792706663     -0.12442330304587
  N   1.16661683854315      3.85176209614204     -0.58777641693038
  C   1.61535020497288      4.81222683642306      0.39114990941640
  C   3.11882284963930      4.94511983139213     -0.02846242314218
  N   3.25971874861521      4.28273894176866     -1.33540390020758
  C   2.16403384305888      3.68981293425516     -1.55421128542862
  C   0.85983297401284      6.12789720596778      0.27499797651281
  O   1.24570882290633      7.13070538925669      0.80074863062089
  H   -1.55286682885666      1.42774849443099     -2.54143857741119
  H   -1.57891377581161      0.06113521636712     -4.57297742205868
  H   1.57886032434494      1.09875682684190     -5.32657514122690
  H   -1.81084776910136      2.72774291100166     -0.50676541712754
  H   1.49541801857176      4.44536582747564      1.41234264074434
  H   3.77454974446437      4.45044114608360      0.68914244598551
  H   3.41480392693140      5.99167115782759     -0.08437001976697
  H   -0.06412436149108      6.10324276823693     -0.33179598723426
