25
Coordinates from ORCA-job 5449optt
  Br  1.24226461863790     -0.30804574728919     -0.59682486465962
  C   3.04968248644136      0.01569353288021     -0.16654346504801
  C   3.62849441669412      1.24001458757784      0.01801049552422
  C   5.08297180763940      1.21173031872756      0.10353480507734
  C   5.77972707185215      0.05638106051237      0.13480416808068
  C   5.13321267143486     -1.23578976505542      0.08708738855688
  N   5.62676077858017     -2.40694830471812      0.17822033245053
  N   3.75956370970822     -1.13425865770396     -0.13713725122127
  C   5.84139755638104      2.50575213163997      0.06818166942128
  N   7.07618828823215      2.68832083803169      0.29764173839449
  N   5.08845491978280      3.59136739893958     -0.31873572229518
  C   3.71874838956003      3.68473358526778     -0.14172947932807
  C   2.94568194468463      2.53917326040456      0.07451334388874
  C   1.60235486091632      2.76451249830790      0.38076433942572
  C   1.09078050414936      4.05043820459041      0.36336331913330
  N   1.82065495642838      5.12635124633916      0.07533600302880
  C   3.10692803554148      4.93775685781318     -0.15537390736629
  H   6.86016122604083      0.05211919854645      0.16117718056819
  H   6.63098381657143     -2.36993122455170      0.31957695034899
  H   3.28312869707568     -2.01527268403383     -0.27509343655176
  H   7.55818101924554      1.83425361229579      0.55095400149591
  H   5.61501197067498      4.45334447300559     -0.35617155050108
  H   0.94848990044691      1.95443346515814      0.65577423214444
  H   0.04659359068847      4.22306538035855      0.59441722754887
  H   3.70958276259174      5.81880473295545     -0.35874751811710
