17
Coordinates from ORCA-job 544optt
  C   2.57718658862899     -0.54351774925512      0.97283061553573
  O   2.15151796586445      0.77544386180818      0.73930612348975
  C   3.07832146176844      1.68860288005849      0.33577670704119
  C   2.46130164791807      2.99329216700544      0.07417776618287
  C   1.15892067235512      3.23412298505288      0.17795696153230
  C   4.38425782410721      1.42077811232412      0.19741378066016
  C   5.45026450113922      2.37459220793152     -0.24538860677363
  H   1.68995901956474     -1.10776335456191      1.24868953792751
  H   3.30364619336731     -0.58796071039677      1.78920929002799
  H   3.02161870055992     -0.97879625168683      0.07304960668561
  H   3.12809509715476      3.79135464263009     -0.21994380437288
  H   0.46528370728762      2.45784946298741      0.47012857873083
  H   0.76119441537791      4.21848290463667     -0.02913891484933
  H   4.73238930132971      0.42092765850941      0.42248755825577
  H   5.06952577331371      3.36074797968198     -0.49650354931516
  H   5.96755900428671      1.98695063391998     -1.12591714903030
  H   6.20495812597612      2.49889256935447      0.53486549827159
