22
Coordinates from ORCA-job 5455optt
  Br  1.32178469700220      0.40272024621171      0.63588880945987
  C   3.09801789089020      0.02934390388099      0.15442962305273
  C   3.64005145575541     -1.23134194069036     -0.00345975168302
  C   5.09226523048843     -1.27048631465484     -0.09293315548521
  C   5.84841137487891     -0.14433296809467     -0.18509059248734
  C   5.25116044747413      1.16121749448005     -0.17521792384692
  N   5.75528538882145      2.32533355858151     -0.30268353766928
  N   3.86139852374552      1.12199728366069      0.07527085074002
  N   5.75523009884676     -2.48827126531498     -0.03237353349077
  C   5.08703050394889     -3.56259315002007      0.05496312849332
  Br  6.06263719867074     -5.17942927586259      0.23440294581042
  C   3.63453050154844     -3.65343787015390      0.00938342225182
  C   2.98103586453538     -4.91596768124202     -0.07544890359539
  C   2.42694627265157     -5.97574261075284     -0.16383031690140
  C   2.93952223934175     -2.47680137253305     -0.03807694546512
  C   1.46547572124247     -2.61119990768534     -0.31160315468788
  O   0.93105900583898     -2.05550723174931     -1.22693556253322
  H   6.92354774782635     -0.23365592644455     -0.23799398494442
  H   6.75627279147659      2.27274001244673     -0.46018496657489
  H   3.44165055100800      2.03434915351906      0.20568225141558
  H   1.94860865018754     -6.92270436874321     -0.24830339871221
  H   0.92507784382021     -3.31622976883900      0.34011469685330
