27
Coordinates from ORCA-job 5458optt
  Br  0.91311177749960     -0.41272318164614      0.11153176845999
  C   2.75484665532899     -0.13548689619428     -0.05501767052197
  C   3.65082526505845     -1.11830013525271      0.09573218467604
  C   3.51797794839276     -2.50988158782294      0.40243539753145
  C   4.75125955762435     -3.04408651970226      0.43248904497105
  C   5.76539450325720     -2.01814973868382      0.14992272978237
  N   7.04477980268116     -2.12752423788325      0.09798470896098
  N   5.04069729065481     -0.84910200110947     -0.04928186775515
  C   5.45512460169958      0.44475084460327     -0.44420945845970
  C   6.91564682032411      0.67407408121494     -0.64360464819513
  C   7.65130534043912      0.75767437573231      0.70449546110215
  N   9.04503177399451      0.40147977733817      0.56946307418051
  C   9.97409390478321      1.29885754277545      0.17600883676323
  O   9.76776932179343      2.48131801068059      0.01484138413916
  C   4.51222327391417      1.38669539159868     -0.56024232040711
  Br  4.87275536658260      3.16944348733947     -1.02472248643640
  N   3.14588792678936      1.16014064738353     -0.29706880268618
  H   2.57370239561606     -3.00208742071760      0.57123334575349
  H   5.01411568947653     -4.07125811301805      0.63277511007995
  H   7.30076037161955     -3.09277793627024      0.27984694459663
  H   7.07913416665192      1.58778340947414     -1.20911425517826
  H   7.32474497108917     -0.16132327083665     -1.20607335647780
  H   7.20116911847073      0.07249161144432      1.41931442854762
  H   7.59305332017373      1.77148661419912      1.09875339222383
  H   9.24977048147939     -0.58423731065815      0.50517962290281
  H   10.96913196075311      0.84860741990161      0.02943087351070
  H   2.48268639385223      1.77713513610995     -0.74210344206425
