21
Coordinates from ORCA-job 5463optt
  Br  1.27982085673660      0.28423783772707      0.68131353392815
  C   3.04473507998093      0.07577511121532      0.12989348830297
  C   3.67165113842911     -1.09009146283190      0.01099258239823
  C   3.34493578455853     -2.47855514921577      0.19475386298364
  C   4.42116825076528     -3.21322144988498     -0.12891595325349
  C   5.54388765824405     -2.34331501253241     -0.52340810751194
  N   6.72809265368101     -2.58428514549954     -0.90141500217241
  N   5.02056631964171     -1.03599607043040     -0.42094294679827
  C   5.66387069509177      0.14864636782135     -0.15852577978166
  N   5.07871355366524      1.26076366834439      0.03733206988295
  O   3.67381321335261      1.23955228933200     -0.17215324303296
  N   7.06093964069350      0.12783727352119     -0.01633904876247
  N   7.84830522818869      0.62643845346288     -1.00590279144221
  C   9.07110861516249      0.35786279853528     -0.76188828361403
  S   9.39672538314915     -0.54292749136204      0.68585320402407
  C   7.64903890102551     -0.59488824248230      1.00720527066456
  O   7.07499634038299     -1.12255249316968      1.91658426588731
  H   2.37695040144310     -2.82830855891757      0.51666178968000
  H   4.50363936547879     -4.28850917489717     -0.11258221415587
  H   6.90666908579341     -3.58433091584291     -0.89764620036400
  H   9.85637183453545      0.67686736710721     -1.42987049686258
