23
Coordinates from ORCA-job 5464optt
  Br  1.20838631310846     -0.21536934936019      0.54287741183745
  C   3.06455960063633     -0.24396631993064      0.33932562113411
  C   3.75761060494919     -1.37861721281800      0.18099727078105
  C   3.35983584933751     -2.75353517193224      0.12497847762057
  C   4.46877109348162     -3.50501915841301     -0.04572779586973
  C   5.67851181869056     -2.65873863590928     -0.11731513744371
  N   6.91108375404288     -2.89393916637457     -0.27031283438364
  N   5.16830622242075     -1.36061632234285      0.04035397450209
  C   5.90755809212492     -0.20340550672966     -0.03172618073690
  N   5.46101345448047      0.97809078356161      0.08566417222124
  S   3.83338477760081      1.31678597274917      0.36596511945177
  S   4.47195021975400     -5.25111971010591     -0.10482656631717
  O   3.20199158050345     -5.68989664692201     -0.60063917622010
  O   5.69924265910235     -5.68750958465693     -0.70941579886109
  C   4.56076590220374     -5.73103304101150      1.61424775061101
  C   5.16110055370914     -4.86466620828738      2.62317354329525
  O   3.75120539817747     -5.01834803296510      2.49897139965216
  H   2.34575048636158     -3.11149493070332      0.21506967576762
  H   7.07721189147446     -3.88796128655441     -0.40641696249645
  H   6.96614430573168     -0.36734378740629     -0.20774268800064
  H   4.57465851864448     -6.81470069199749      1.69739006844902
  H   5.54980204758584     -3.89434086100214      2.33573007672963
  H   5.60015485587824     -5.32325513088782      3.50037857827645
