20
Coordinates from ORCA-job 5468optt
  Br  1.05487941266201     -0.07699936991630      0.59629364945499
  C   2.87360051081624      0.06806704141896      0.20966561637674
  C   3.55478984205573      1.24278194015668      0.14220323056436
  C   2.94234968858537      2.54295049301757      0.15467937021803
  C   3.68373521819205      3.64935289965109     -0.04396171824142
  C   5.11619059703708      3.48939495840460     -0.18704628657952
  N   5.70478345872944      2.35581758926327     -0.09800974554393
  N   4.94948993286899      1.24362080251710      0.06571117640515
  N   5.72942232566320      0.19836466649610      0.46839307327675
  N   5.26525716294005     -0.94233307367511      0.54212677715014
  S   3.77342596163802     -1.35944868928044     -0.16125599133599
  O   4.03586252460529     -1.40868001842114     -1.56343904359036
  O   3.27017823768266     -2.48791427654474      0.53606209143509
  C   2.96875483813096      4.96425953058194     -0.08370609085340
  O   1.79299247600055      5.05520940145863      0.15287272764100
  C   3.69103547448911      6.26852511812576     -0.44649403891876
  O   4.84807261074787      6.34845832057261     -0.73123696290452
  H   1.86947073961066      2.60786713692681      0.27812248841183
  H   5.76580964799302      4.33652939394000     -0.34249580530803
  H   3.00989933955165      7.13617613530659     -0.42248451765817
