20
Coordinates from ORCA-job 5469optt
  Br  0.99616636370376      0.37180557910873      0.62548792465091
  C   2.68306560062460      0.18432563200670     -0.13515286465473
  C   3.23980868314691     -1.00955386049179     -0.46855414674921
  C   3.18574692749649     -2.38397396698011      0.04476605763853
  C   4.44766442693844     -2.88592504872978     -0.00087466085064
  C   4.89810176903193     -4.15017333303687      0.47032370104838
  N   5.28042678041659     -5.15844952964983      0.86217228696948
  N   5.35943648270369     -1.96005016559178     -0.59614934211282
  C   6.60631004974274     -1.40933149768479     -0.19232663663761
  C   6.57260893243677     -0.04912350285146     -0.41716770256656
  C   6.97062482957452      1.28017287537414      0.25380341810656
  O   8.02175300512831      1.58739930091229      0.73384191828151
  C   5.67471672613836      2.07804739716062      0.34042090496182
  C   4.71829867976451      1.37234408356907     -0.29922313376103
  O   3.33067728445627      1.38781295295939     -0.25109070349127
  C   5.28294732969083      0.22590938141197     -0.91559443813639
  C   4.57212310923441     -0.90120548046776     -0.95985575878124
  H   2.32714261684014     -2.91057495327232      0.42880319463112
  H   7.36344505743193     -2.04843503284094      0.23279489532368
  H   5.59393534549875      2.96597916909451      0.94457508612950
