27
Coordinates from ORCA-job 5471optt
  Br  0.91983627415803     -0.09028080729886     -0.22005898468599
  C   2.81181388507531      0.01355712052958     -0.08975272496461
  C   3.42918308669877      1.25227015690890      0.09960049892622
  C   2.70578024307118      2.56083395963059      0.25290464474047
  C   3.54339055865209      3.70842509315630     -0.30665934995314
  C   4.94663758592114      3.72123905217598      0.24735986139352
  N   5.66207874336311      4.73772400959917      0.50582803563975
  N   5.48720442705503      2.46572189743981      0.42320127213970
  C   4.81915517646509      1.27819749188172      0.20603148801263
  C   5.57142605377265      0.08912853726374      0.13652255009481
  N   6.95226618551022      0.19471843428315      0.26906793274913
  C   7.61400836746745     -0.89427310610841      0.21220208078988
  N   7.06394284991937     -2.13191164264259      0.03528753016919
  C   5.69265340431650     -2.36482895366363     -0.10742589942453
  N   5.15840186129841     -3.50510522952444     -0.26733846318142
  C   4.90581958571823     -1.12336465989719     -0.04751961171671
  C   3.52031343715974     -1.16672959675164     -0.16674642293729
  H   2.50655741440300      2.73194316074596      1.31630447414444
  H   1.74046241552014      2.52567158424801     -0.24769848201977
  H   3.07372125027958      4.67085493542850     -0.11091054143650
  H   3.62694469724904      3.59387206089700     -1.39176604489750
  H   5.14952677894490      5.59435064585578      0.32022977138948
  H   6.47943380754486      2.40741587198676      0.60979904765452
  H   8.69449288464288     -0.87899511024771      0.30728964720225
  H   7.67921796809376     -2.93017521612378      0.00504458221970
  H   5.83884534466658     -4.26130926808030     -0.28268508956780
  H   3.03088571303291     -2.11895042169243     -0.30811180248044
