28
Coordinates from ORCA-job 5484optt
  Br  0.93424367427281      0.03728254190918     -0.49586831717682
  C   2.80168335151570     -0.09863796738250     -0.26113349747412
  C   3.51596664556084     -1.22478124021956     -0.51676839518267
  C   2.86143170185258     -2.47151017499694     -1.04553640875585
  C   2.42066462418388     -3.49030250476145      0.04189268564803
  C   3.11034676104011     -3.31117775293461      1.37874614414529
  N   2.52623783332405     -2.94867415812110      2.45060512798224
  N   4.45319558235008     -3.58710284638010      1.41387498714881
  C   5.31193300155615     -3.66322571728858      0.25449853951245
  C   5.85423822220186     -2.31343773523470     -0.23676289607973
  C   4.91459992172883     -1.12960011205474     -0.15089130128099
  N   5.47729946342189     -0.04611168466463      0.29326220408736
  C   4.76732180111649      1.12245928236205      0.44930323343225
  O   5.22402848590341      2.18308240546522      0.78853550088878
  N   3.38282455782580      1.01740147448219      0.20814290816152
  C   3.60720400905676     -3.10886304326423     -2.20300458273577
  O   4.40949468069770     -2.55007255192916     -2.89097381597001
  H   1.93971824725760     -2.15903993279311     -1.54917674838399
  H   2.57704564649428     -4.51055972781154     -0.32209775593568
  H   1.35339592536431     -3.37860419843860      0.22101357200582
  H   1.53105349384349     -2.81936035160648      2.30301322467897
  H   4.88252270709758     -3.34562245871692      2.29599283591356
  H   4.78748005107060     -4.20693093323530     -0.53135560947984
  H   6.16551098892779     -4.29367577660857      0.50508266745865
  H   6.19486253224020     -2.40913084433460     -1.27077609336913
  H   6.71965092919301     -2.02962436503385      0.35969022278372
  H   2.83994784724789      1.85085490446658      0.38403495625150
  H   3.30509731365422     -4.15503453087391     -2.41634338827434
