25
Coordinates from ORCA-job 5486optt
  Br  2.62875288061058     -0.43718773043224      1.81065435451930
  C   2.92798303507947      0.42220092513293      0.17030724401251
  C   2.61536007978496      1.71025941148001     -0.09456387469207
  C   1.95190591052255      2.63611165428091      0.83647503812916
  C   0.80149816323052      2.42935020390706      1.47633302410576
  C   0.00538503058507      3.60669676390490      1.93312278083429
  N   0.03196294392605      4.23310651144283      3.01885480745466
  N   -0.82194342974188      4.11988133478731      0.83201054317118
  C   0.07086663339480      4.69405892255265     -0.11034990002293
  C   0.60450444689609      4.00054880375801     -1.11715469521263
  C   1.84710519691843      4.38109166796085     -1.78513391991493
  C   2.90385460657878      3.56579219520150     -1.89067182840987
  C   3.04921643545371      2.16511162230391     -1.41710123964335
  N   3.66875064241325      1.39388237243503     -2.25917569031308
  C   3.90179470717885      0.07462608213702     -1.98160497428313
  O   4.39286892906165     -0.73389960947555     -2.69487352751428
  O   3.51406694710612     -0.38152260760375     -0.69278714281105
  H   2.39129209484034      3.62790490404817      0.86429573959297
  H   0.28703828881471      1.47472787381336      1.41310397879314
  H   0.68077723721814      3.78500313346449      3.66597644792618
  H   -1.29617912663782      3.33073097337122      0.39912791524742
  H   0.45081358824015      5.66881197642177      0.17791418517760
  H   0.24861850807393      2.98977425128923     -1.29208094910323
  H   1.94304411547235      5.38510238591822     -2.18524254908434
  H   3.76866213497916      3.89783597790012     -2.45243576795927
