26
Coordinates from ORCA-job 5490optt
  Br  1.07320620003831     -0.02326898160592      0.49319716795188
  C   2.94292615315097     -0.01962539242004      0.18865763644963
  C   3.67184701007532     -1.15971585350686      0.23621275295855
  C   3.00934785655747     -2.51399149129853      0.44555398999794
  C   3.23190089586656     -3.09253361645824      1.85360517950111
  C   2.74185186070342     -2.18233796958291      2.88569283714625
  N   2.36818408692573     -1.45853275040151      3.69068807661616
  N   3.38860551877902     -3.47777524321199     -0.57204850331870
  C   4.58118699883581     -4.26963929808882     -0.41351966884539
  C   5.87620988733584     -3.62050847565596      0.03885552406679
  O   6.85807880178030     -4.30242612661694      0.22346031327686
  N   5.92429255578025     -2.27555091726755      0.32711028867274
  C   5.11382674429865     -1.15613410469289     -0.00565616929973
  C   5.77011326827168     -0.07344932505326     -0.45186303373400
  S   5.09434772725818      1.48204687131993     -0.70438634758755
  C   3.45638990796009      1.34320698643975     -0.05417224143302
  N   2.74128255163477      2.37089475794922      0.12627975510191
  H   1.93850736892311     -2.36496020920401      0.34449644601233
  H   4.28451610977107     -3.28909249964768      2.05890328819230
  H   2.69085542638011     -4.03762039803753      1.92841133969446
  H   3.30043139849039     -3.07905330204340     -1.49554532820434
  H   4.79845693602904     -4.77009965849080     -1.35691278434461
  H   4.41539706731029     -5.07418191317897      0.30902766264520
  H   6.85921267923143     -2.02799765192189      0.62437160820990
  H   6.83176703275205     -0.12054204814442     -0.65987471049460
  H   3.23625795586005      3.23888861082129     -0.06854507923210
