25
Coordinates from ORCA-job 5491optt
  Br  1.26113590892111      1.67521185338521      2.57697043072376
  C   1.86307013815508      1.15799492825307      0.88135466264829
  C   2.89437875679753      1.71624710905875      0.23632912310581
  C   3.43095954599318      3.08382215879111      0.48493492308860
  C   2.46688191494618      4.05139696975091     -0.25342370002547
  C   1.17409519334327      4.31449758787893      0.50841729004452
  N   1.11379000948938      5.11717128943135      1.49480286113673
  N   -0.01378907083106      3.72877726330877      0.11867145019587
  C   -0.29282107339794      2.58651963182607     -0.71693216203240
  C   -0.97622751793403      1.46894005153707      0.10412898748240
  O   -2.07681612209306      1.59005668025170      0.52290484056100
  O   -0.30336779971430      0.28182744723815      0.35512988279576
  C   1.02751882499018      0.27716225714984      0.08169435184619
  N   1.39610910010984     -0.31768707804635     -0.97889420383179
  O   2.71794978024223     -0.14253553418021     -1.32484388958659
  C   3.39100600816801      0.99407499941042     -0.95956909919332
  O   4.37734868127452      1.29465535424943     -1.56124553194586
  H   4.43165618467588      3.17283439029372      0.06842909454171
  H   3.45299404589279      3.32000078015179      1.54810700193512
  H   2.28350769900805      3.68478248043375     -1.26548410975028
  H   2.96052819268764      5.01744286769600     -0.35891370521120
  H   2.00952397878271      5.56385817375816      1.66547473018763
  H   -0.78760292298875      4.03751861814331      0.69359461726510
  H   0.60084244719093      2.25874496430113     -1.23808908488981
  H   -1.03567190370940      2.84868475592786     -1.47354876109175
