25
Coordinates from ORCA-job 5494optt
  Br  1.08219411129565      0.14842361787410     -0.00858356522403
  C   2.95062458520341     -0.01533273904625     -0.04406763617080
  C   3.57377956393939     -1.12696278517141     -0.46140702586581
  C   2.82749576723438     -2.32293896042855     -1.00074747794879
  C   2.31335392039674     -3.30510931796917      0.08010337353162
  C   3.41294754428255     -4.23196566738565      0.54447645110752
  N   3.41188766934644     -5.48630680661800      0.57782158650747
  N   4.61711048387707     -3.51936749726067      0.88044656703072
  C   5.51694744490814     -3.34948800471220     -0.18518118661535
  N   5.80489562432614     -2.22844750649209     -0.71971126127752
  C   5.05199192107610     -1.10453719808054     -0.36239023432133
  N   5.73666567140815     -0.08343102823383     -0.00543133096936
  O   5.06088070708767      1.06631925893259      0.32479025003208
  C   3.69856948509938      1.16274798731272      0.40483327816378
  N   3.14808139346677      2.21763208873495      0.81244308108236
  C   6.13287515329398     -4.54779670385575     -0.68477514433181
  C   6.64096902102537     -5.54412546547635     -1.10768601894345
  H   3.45526857811790     -2.85872345041918     -1.71345504572810
  H   1.96520466156580     -1.94768009394554     -1.54904958316624
  H   1.48847078839865     -3.89554788867663     -0.31800162022479
  H   1.92362177028522     -2.73454749746746      0.92882732232342
  H   2.52042010675829     -5.85552404571512      0.25051153691331
  H   4.40184369084620     -2.62484678724604      1.30533860108979
  H   3.84382241781949      2.91765936552512      1.06449029227350
  H   7.09107791894107     -6.43410287417905     -1.47959520926819
