25
Coordinates from ORCA-job 5495optt
  Br  1.07178381230388      0.10925790815936     -0.32569997209651
  C   2.93385327147024      0.01938451135884     -0.04814875477604
  C   3.57909379366013     -1.19324698173523      0.03209940580701
  C   2.98465626942865     -2.49169111648367     -0.08655845441353
  C   3.73278166860126     -3.60882754573613      0.01640559890418
  C   3.11209685980898     -4.95910618281032     -0.16328414758527
  N   3.68623360630841     -5.95670363898450     -0.69400495633813
  N   1.78735391284860     -5.03050416439364      0.24636404746858
  C   0.90977168376300     -6.10473126546280      0.07634835561762
  N   1.09148625046343     -7.19800859145561     -0.51805449147097
  C   5.21479102636552     -3.50669263523901      0.22310150778476
  O   5.91898918257777     -4.49309560923404      0.25931406965011
  N   5.76091554959989     -2.24314700144166      0.36235875196331
  C   5.00180379846594     -1.20206800943616      0.26231130375976
  N   5.61055220131803      0.02694543048823      0.38169480024151
  C   4.96479903972325      1.20191188225603      0.29003755712071
  C   3.62033133061857      1.24295364319065      0.07451882645521
  H   1.92463096221104     -2.54803646091528     -0.29877141468502
  H   4.65940492278080     -5.74100410681427     -0.88944580191306
  H   1.45400007009184     -4.28694449984428      0.83479880733783
  H   -0.05596679581618     -5.89302102333274      0.53717482560095
  H   2.04240848549341     -7.26236473796689     -0.87935326641292
  H   6.60940416998464     -0.01287632937885      0.54181444231548
  H   5.56746736028920      2.09250208837275      0.39293512255709
  H   3.10235756763962      2.18511443683925     -0.00095616289264
