23
Coordinates from ORCA-job 5496optt
  Br  1.19966595898349      0.02788855210907     -0.00655276305475
  C   3.05987183656065     -0.14430330014732      0.00772436139070
  C   3.67567438787566     -1.33342502004611     -0.00597109516208
  C   3.15993418490947     -2.74130733972013     -0.01282338015782
  C   4.43945374364979     -3.55126956239830     -0.34367280145286
  C   4.50249218895287     -3.91098017545927     -1.76859711874441
  N   4.52106098924350     -4.17381853643926     -2.88277461217495
  N   5.54308199192874     -2.64073213904892     -0.00040443817759
  C   6.68531346062252     -3.14937098112647      0.59937000974863
  O   6.91244470918420     -4.32362581899708      0.65386316875497
  C   5.10843555558072     -1.32164431579511     -0.00838030712155
  C   5.83396222077206     -0.16898936024593     -0.03768430677363
  C   7.26800874030622     -0.14928455743869     -0.33170683822625
  O   7.98039216816857      0.82095307735002     -0.24558188438935
  C   5.10657487585440      1.10421067655266      0.09163443428316
  N   5.53494306827918      2.26924908842934      0.21523479998956
  O   3.69401942419504      1.01238057460471      0.04195357753483
  H   2.37718399671703     -2.90680429800741     -0.74999483674465
  H   2.78016156538860     -3.03480659817786      0.96697749434290
  H   4.54105259567091     -4.46161822874302      0.24460650467206
  H   7.32583197167180     -2.37590472635433      1.04117044183373
  H   7.67685706871995     -1.10180351451756     -0.71287139979481
  H   6.55258329676458      2.27300650361698      0.22748098942414
