21
Coordinates from ORCA-job 5497optt
  Br  1.35730116096632      0.56236723909086     -0.62138021577160
  C   3.17195427411183      0.23457937629721     -0.29920692258144
  C   3.66512881042477     -0.99137483388836     -0.06021508291959
  C   2.88252841753415     -2.26901942751743      0.06386211709567
  C   2.12486144474617     -2.36403630608661      1.40587289330615
  C   3.06499540841448     -2.25465503182028      2.51822594862370
  N   3.85911084498538     -2.15603635353619      3.33816042272383
  N   3.72608568043887     -3.44550106912194     -0.03662674730359
  C   4.96966774538855     -3.32847480241530      0.04559916200968
  O   5.72678068585012     -2.20015525405104      0.15678684395039
  C   5.10169867566776     -0.99798943658269      0.06570374943948
  N   5.85858293646400      0.02200938499425      0.05895722817633
  C   5.28578846186799      1.27390450480863     -0.05320234234433
  N   5.84051880194125      2.38774261773218      0.04622462645931
  O   3.90313997237940      1.32890055657961     -0.34884329471744
  C   5.82177634463883     -4.50202718988985      0.01478415528882
  N   6.49133776703147     -5.42924538669550     -0.01347263892551
  H   2.13476424685135     -2.33509310670130     -0.72853651088003
  H   1.60661682063789     -3.32153408009696      1.45923092155617
  H   1.39055618127891     -1.56098762450712      1.47239353574131
  H   6.83080531838047      2.25762622340784      0.23368215107270
