25
Coordinates from ORCA-job 5499optt
  Br  1.39734683728986     -0.11585890592714     -1.08733121895698
  C   3.17341809862193     -0.26603105291544     -0.50571336985415
  C   3.70553664719599     -1.37051209456451      0.04461617894595
  C   2.94141976654508     -2.61606733348340      0.41435074909422
  C   3.16513520451175     -3.85600028758875     -0.48165085810074
  C   4.53775389901087     -4.43717843205521     -0.27837189180683
  N   4.87349812853494     -5.55023855442856      0.18867439981319
  N   5.59020265443956     -3.48252064059215     -0.56795338351624
  C   5.77875402032264     -3.10455705270599     -1.88152439659748
  O   5.28878178696413     -3.67944891284929     -2.81553515754682
  C   5.85338014397441     -2.54924377188588      0.49112203531152
  N   6.46375824756984     -2.80814791128444      1.55168455958736
  C   5.14374378800790     -1.24985877317086      0.25284626444173
  N   5.82380359468736     -0.17340607790030      0.12910312849910
  C   5.14207326930005      0.99530215310354     -0.18944951600518
  N   5.56144320940636      2.16935621744779     -0.09633766330637
  O   3.85909701311042      0.84803228969625     -0.73010440396962
  H   1.87946769494314     -2.37929750483173      0.39828862140492
  H   3.18707435851599     -2.87757098939297      1.44765018478844
  H   3.04718664792023     -3.58110600083698     -1.53231891081670
  H   2.41628540175363     -4.61019268967542     -0.24063195611253
  H   4.05309805881027     -6.12034233743902      0.39404846389928
  H   6.44931923692380     -2.23683363120807     -1.98176094984280
  H   6.81901893453034     -3.76742376499326      1.53660811987736
  H   6.51740335710946      2.15614605948184      0.24969097076937
