24
Coordinates from ORCA-job 5502optt
  Br  1.42543950163539     -0.16449755076607      0.20122242871039
  C   3.20366506823355      0.44867417667055      0.16506223700380
  C   3.47142863763755      1.78299222755495      0.22157006580533
  C   2.52696231969035      2.90217211506451      0.16827398395065
  C   1.80378222997305      3.38436168025254      1.16715758746073
  C   1.49867586251929      4.83878330225992      1.26128563949007
  N   0.70837084550018      5.37653994389064      2.08892581592302
  N   2.23107252475215      5.66120188649585      0.36958659692523
  C   3.48639389113223      5.63057498198824      0.29756630680693
  S   4.59414952174905      4.69618115406549      1.38156257170101
  C   5.33072147717990      3.51959508917868      0.27811189437335
  C   6.55435162718427      3.91231791621158     -0.40068739007088
  O   7.05840515049007      5.00909338811986     -0.36888310931458
  C   4.85585298594631      2.21165931046802      0.16753800600705
  N   5.73579876600746      1.16752904824681     -0.04915525817791
  C   5.35477928523334     -0.12670764984039     -0.10615499257840
  N   4.13879937810150     -0.52864743595313      0.02695760842957
  H   2.71241686837534      3.54308678881738     -0.68704236103671
  H   1.61991387454575      2.80311246172230      2.06436382131890
  H   0.23954147789764      4.66553484739872      2.64739461900493
  H   3.99169116817891      6.20977018452928     -0.47376399102008
  H   7.00102650454184      3.13666808111228     -1.06079094734271
  H   6.72376546823378      1.37496884885929     -0.07407881390568
  H   6.14699556526105     -0.84996479634734     -0.26002231946403
