23
Coordinates from ORCA-job 5508optt
  Br  1.11286492904239     -0.09672542393296     -0.08628268382165
  C   2.96647282038502      0.04253231822920     -0.03425355762652
  C   3.63609368700465      1.20135049910350     -0.03112660171558
  C   5.09038860396212      1.15173838353190     -0.00447848323715
  C   5.73971756111068     -0.01444469047706      0.03253065930642
  C   4.97659769160459     -1.26230433634687      0.04425887333533
  N   5.39174967668259     -2.44632178602135      0.09223366690603
  O   3.58543122741427     -1.13636772939179     -0.00516315565520
  C   5.64563923735025      2.57150136857383     -0.03779185624457
  C   6.46726159491838      2.90001503182006     -1.29255200307465
  C   7.73028581664418      2.16813612412984     -1.29397815481563
  N   8.70663694773881      1.57043839033705     -1.25522772106969
  N   4.40554034228380      3.32087464199821     -0.03961414523277
  N   4.14413186152504      4.62977182485458     -0.06629916543143
  C   2.82049673726594      4.63099717843833     -0.08386273940341
  N   2.22808440601781      3.40501192672701     -0.07520696074146
  C   3.26705307029178      2.60318632452182     -0.04990358677990
  H   6.81837790527127     -0.09194320646987      0.05489152328011
  H   6.40665171487895     -2.47227654181798      0.12087366548010
  H   6.23097117798012      2.79665136956972      0.85573104297933
  H   6.66778262066538      3.97231704360270     -1.31504679736718
  H   5.89625569462712      2.63977608756158     -2.18536473448598
  H   2.25951467533479      5.55108520145852     -0.10236708458456
