24
Coordinates from ORCA-job 5511optt
  Br  1.90365082288311      0.23457182905588      1.77395405752055
  C   3.50087262878886      0.13316976186065      0.79289626506946
  C   4.14228576573665      1.19187978181241      0.24806658496222
  C   5.44102385489834      0.88400688839428     -0.36744845947190
  C   5.85642013466326     -0.39585395241398     -0.45108019457018
  C   5.10833750456286     -1.49313708819972      0.11407829997708
  N   5.33407653530141     -2.72904857489050      0.12331395571442
  O   3.93593127291249     -1.11309280867221      0.77567802880299
  N   6.30977201316571      1.83883580106917     -0.92023994386037
  C   6.44928005824757      2.98864794079241     -0.41102767380057
  C   5.67075590880620      3.51148674933040      0.75582007019905
  N   6.27904018696292      3.91357609761648      1.78265400771077
  N   4.29450358943515      3.59865246528015      0.51493986481444
  C   3.59047099034215      2.56789367521306      0.26962253977476
  C   2.14827360107095      2.83549961847564     -0.08999142823173
  C   2.02789440288345      4.08480714823857     -0.94354649088260
  O   1.11399836562346      4.84930920489958     -0.84851434893774
  H   6.79272330996402     -0.61606321797617     -0.94272848770781
  H   6.20126481109591     -2.93928645835707     -0.36148283714451
  H   7.19155996655299      3.65639283767226     -0.84337661607143
  H   5.62168343602269      4.25730539092138      2.48463464533088
  H   1.54135573071008      2.98138621752451      0.80230129040629
  H   1.71869574641251      1.99909154472154     -0.64698330183363
  H   2.82712936295718      4.23796914763125     -1.69153982777046
