23
Coordinates from ORCA-job 5513optt
  Br  7.09005185109993     -4.29266164264753     -0.50818394530400
  C   6.77014755656196     -2.47258628171342     -0.18828803474909
  C   6.22052285262967     -1.65396428254838     -1.12709176128949
  C   5.59420619821736     -2.07530536745370     -2.36143179049317
  C   4.44074172548871     -1.51986142819126     -2.75264973637791
  C   3.63122325544213     -0.51889038676865     -2.04710473731719
  N   3.58193816057479     -0.04885126994670     -0.86046882994459
  O   4.54345055830438     -0.47190847494562      0.08554211049475
  C   5.82111022868591     -0.44825618148183     -0.41374804214758
  C   6.83398497027545      0.02456065256449      0.38251277672523
  N   8.04013923628017      0.40837386147964     -0.18320718853435
  C   8.82706180280266      1.07956011899496      0.58923372082304
  C   8.62690505767356      1.42643905498206      1.98701970224421
  C   8.02405021330256      0.65089164266511      2.91825818639085
  N   7.58030007044647     -0.63272694885299      2.67872964523716
  C   7.07893923224042     -0.84762264529327      1.54577148447033
  O   7.03114598491493     -2.18124057522303      1.11317912483848
  H   6.04825957912782     -2.85914387665131     -2.95455556564411
  H   4.00441307998534     -1.84340466905539     -3.68924645048509
  H   2.81877672726076     -0.10023827504352     -2.63525707465900
  H   9.73432739211281      1.45849074064915      0.12486130574245
  H   9.12963102117148      2.32011198034067      2.33592729307366
  H   8.02567324540065      0.95223425414052      3.95819780690542
