27
Coordinates from ORCA-job 5524optt
  Br  1.93239314194114     -1.74915591495320      0.01271315229641
  C   2.90028175198487     -0.17233138416167     -0.34044291433693
  C   2.38706386392066      1.07398258917696     -0.29761187183014
  C   0.96609406908964      1.37072102718365      0.10917280093712
  C   0.78434395286327      2.08552292542328      1.46381038662125
  C   0.98089019367018      3.57517671661111      1.46000643153307
  N   1.67854873822586      4.17510229411715      2.31763518137082
  O   0.26147551875190      4.20159428874436      0.46013147696749
  C   1.02037231850547      4.95387417224969     -0.48284423261388
  C   1.83937010945089      3.95489765422750     -1.27537590564209
  N   1.53901037143564      3.45925011935113     -2.40089371041854
  N   2.91050983897362      3.46051914668212     -0.55783745492473
  C   3.34325347032480      2.11965221895356     -0.62163943359622
  C   4.63895506783656      1.85221005559257     -0.87943762311851
  C   5.14271571250823      0.50114210462613     -0.86398715910331
  O   6.26075964173539      0.12784234146219     -1.04345319579298
  O   4.16520823687396     -0.47131576160164     -0.62597370718970
  H   0.43550481809762      0.42479614171073      0.17287978786369
  H   0.46991687796148      1.94376281592931     -0.67300785064936
  H   1.42727802567728      1.66205284173946      2.23389936797577
  H   -0.25183491156091      1.92393188487462      1.77695408518756
  H   1.63310900617085      5.18801910754026      2.20138476273778
  H   0.30536677739538      5.46809219524611     -1.11941650458264
  H   1.65001159295213      5.69591116343758      0.01833403248137
  H   0.68587766617153      3.87305541752697     -2.76740761887564
  H   3.27043574033304      4.00492058413791      0.20977985265113
  H   5.34308840870941      2.63477325417210     -1.11737213594879
