23
Coordinates from ORCA-job 5528optt
  Br  3.58965588821600      0.14593184693224      2.36744457055311
  C   3.38526227858045      0.39307846720310      0.52240613172354
  C   2.92442393130926      1.53978986292018     -0.03127532712903
  C   2.41674062056434      2.68076453973504      0.74910780836539
  C   1.29859646020910      2.58266018307815      1.45572077800636
  C   0.40841540809697      3.71617394673349      1.79681157468387
  N   -0.38965171643588      3.80343765211324      2.75679526945763
  O   0.43325850974727      4.82574887659208      0.94790605798886
  C   0.79462575655176      4.72466008251941     -0.33859432577497
  N   0.72937433964626      3.65859624223032     -1.00583493407110
  C   1.58293021654950      3.59032867651408     -2.11561549614566
  N   2.49277662465519      2.73239978770699     -2.28718572182625
  C   2.84503478701318      1.62008185479765     -1.49676008160965
  N   3.20990048982270      0.61598643020330     -2.23068119230680
  N   3.60649358530624     -0.50009795880405     -1.63988099825730
  C   3.76641816488718     -0.75839906258864     -0.29540881855576
  O   4.17631815465690     -1.82584914438015      0.10112768613412
  H   2.84831420629615      3.64767692710886      0.51661303063601
  H   0.86838850194586      1.60602569842537      1.64821667978596
  H   -0.31027940940546      2.98933211751877      3.36209126277219
  H   1.22485228264048      5.66717257487000     -0.68687974112204
  H   1.46933016764236      4.35634874363704     -2.88561127127082
  H   3.86282075150417     -1.24884834506650     -2.26951294203763
