24
Coordinates from ORCA-job 5529optt
  Br  1.09067133470329      0.12566278887253     -0.52528963428963
  C   2.94509922873660     -0.07704762717813     -0.32249105518398
  C   3.54686982616927     -1.23947016241267     -0.06406370639410
  C   2.82630788794413     -2.53397281353155      0.14247186603122
  C   2.58431673918312     -2.79360192744610      1.63804563248434
  C   1.81866478542372     -4.01593796080139      1.86680517682281
  N   1.20387583630502     -4.96519729094401      2.04301820472563
  O   3.51624178362762     -3.63114100571229     -0.44761158057698
  C   4.84911822574776     -3.73278400856332     -0.31301751481389
  O   5.41894286489756     -4.72862826049573     -0.62483892673804
  C   5.60642663607393     -2.54188794445038      0.24891574115487
  N   4.92795881261951     -1.26315713136830      0.14337967173062
  C   5.69930719353367     -0.11077667635878      0.29212077140078
  N   6.91134285414761     -0.04655097189560      0.64308512064062
  C   5.01092108935894      1.20163833923296     -0.05546510005242
  O   5.58090565863013      2.25465286648016     -0.06513849524531
  N   3.67511971631602      1.09519808617880     -0.37887392276105
  H   1.86969602291817     -2.50243677612140     -0.37151053328237
  H   2.03025238919269     -1.94923710988899      2.05208844581879
  H   3.53372593909927     -2.86057216795715      2.17408357533459
  H   6.54096341979336     -2.50258207409527     -0.31198989314985
  H   5.86241688408517     -2.77712706828365      1.28909972311238
  H   7.32572242913663     -0.94494989058822      0.87437227448237
  H   3.21513244235679      1.96190678732852     -0.62019584125140
