30
Coordinates from ORCA-job 5535optt
  Br  1.13940187258750     -0.35252291311296      0.16429433360909
  C   3.02156029601646     -0.14324247495003      0.19076661037988
  C   3.62270157411234      1.11872299356521      0.12957547812427
  C   5.01530149730307      1.19064189585395      0.04007113124356
  C   5.78102504535384      2.48881947793082     -0.06790411619104
  C   4.93356327041823      3.70799903510236     -0.39014065654127
  N   3.77697660282050      3.68632393792392      0.50034964043613
  S   2.62619334265516      2.59866208457610      0.05500370028907
  O   1.62641908372044      2.65211601483058      1.07154175908436
  O   2.25252801487492      2.76135844946405     -1.31955776377386
  C   5.74462706907681     -0.00888698700604      0.07597240944482
  C   7.25215314193933     -0.00206461750168     -0.03161583092025
  C   7.91345757042266     -1.34789522357336      0.11224877792630
  C   7.95810207946623     -2.27032982819418     -1.06797842358068
  C   9.21108355286754     -1.59751560607097     -0.59162936022086
  C   5.03185922278061     -1.19071582877146      0.19589529703903
  N   3.70354189734388     -1.25964409859567      0.24124337477375
  H   6.56124897427620      2.37953800487002     -0.82262084810411
  H   6.28912091014393      2.64886113995467      0.88831720250406
  H   4.62776678891686      3.71110042853300     -1.44035170339867
  H   5.49788737878750      4.61772137885270     -0.19634881680887
  H   3.33380315825368      4.57690314656927      0.69768561655271
  H   7.66423749194476      0.69094867221744      0.70886167933571
  H   7.53036894376274      0.41035663916640     -1.00834733739338
  H   7.80082702941216     -1.81666389597281      1.08287078651518
  H   7.51379043386934     -1.91446165328352     -1.98859414847448
  H   7.85323263474324     -3.33234831373121     -0.89785305470705
  H   9.61409559589581     -0.79592594256347     -1.19617248051059
  H   9.95417793945173     -2.20295704203501     -0.09351748607029
  H   5.55094758678244     -2.13989887404812      0.24093422943748
