25
Coordinates from ORCA-job 5538optt
  Br  0.88859422813772     -1.06864571520619     -1.04584295961452
  C   2.59532895627162     -0.49711794585379     -0.53100098247739
  C   2.88849778464632      0.80344864537439     -0.47998908865143
  C   2.04213795322709      1.97123575033631     -0.76406866074311
  C   1.72093812653128      2.71111910781554      0.29059345434029
  C   2.08651737709405      4.12941551801380      0.22528846491822
  N   1.42887354633299      5.15794016423506     -0.03224076114574
  S   3.88630586055157      4.12410620803219      0.57815756519459
  C   4.55561884217477      2.50383917234096      0.39484148413610
  C   4.21451975399666      1.25431816516772     -0.02031650968308
  C   5.23073221710997      0.16296573936344      0.02156374430742
  N   6.55267148423788      0.52721828421873      0.07744854132200
  C   7.67910560699680     -0.30001359470236      0.22853954839286
  N   7.74680615469419     -1.54250261181247      0.39360223109495
  N   4.92428186278677     -1.08289617169792     -0.00240765814242
  C   3.59959712433427     -1.51122097737859     -0.14497496182996
  N   3.25871052177936     -2.72270649000938      0.00366731197574
  H   2.12900577421103      2.42546961376870     -1.74746862618011
  H   1.76112974222509      2.27032687296208      1.28249083044552
  H   1.99212949591968      6.00735388936309     -0.07046897312774
  H   5.56456505421909      2.61534689822102      0.77820925180725
  H   6.76623493220329      1.48530009624711     -0.13607594138316
  H   8.59172584183292      0.29534298142191      0.20159272194633
  H   6.82209459253451     -1.96758620499278      0.38210307937515
  H   4.07787716595104     -3.27405739522861      0.25975689372222
