27
Coordinates from ORCA-job 5552optt
  Br  5.43597965959841     -0.26535470570387     -1.70732728622064
  C   6.87560320268267      0.90951851328260     -2.01050052900878
  C   6.84024611386044      1.90232587815211     -2.94075630837273
  C   5.77851147987501      2.92478914643409     -2.63375155800605
  C   5.94530369353877      3.06930883398601     -1.05900221621870
  C   7.30520707142052      2.55585783057351     -0.59498057856987
  O   7.62313169451775      1.22064791184978     -0.91432409600669
  C   8.22686396464268      3.37794395084415     -0.09768501966798
  N   9.59974171739952      3.11429270034690     -0.13226977337985
  C   10.26875582655422      4.14145368199994     -0.45355164886724
  C   11.67993871979375      4.13843688526241     -0.92844495582142
  N   12.69199008883336      3.78668227585381     -0.25238752425167
  C   11.80442303998916      4.71234808935205     -2.28600860311402
  C   10.96053039106489      4.45398125381396     -3.29651420527986
  N   9.98806497163350      3.47463890947890     -3.32515876334346
  C   8.75883187009744      3.48119647594098     -3.11357953615398
  O   8.12536841501326      2.29608012640060     -3.26359253260412
  H   5.93905981005484      3.85714897326629     -3.17511086788764
  H   4.77796830202396      2.56827747931875     -2.86444186386332
  H   5.15341962216623      2.48231016961540     -0.59243589395164
  H   5.84018538589044      4.10192105832042     -0.73241907704251
  H   7.90528401189580      4.38814877419195      0.14797909487732
  H   9.78526962042504      5.12378756282828     -0.55743740879248
  H   12.40557744921810      3.43568754030407      0.66285640841560
  H   12.65786326885187      5.34876675775421     -2.47604713680971
  H   11.15626048493788      4.90407490551781     -4.26563590247106
  H   8.14462012402034      4.33772902101486     -2.82547221758747
