23
Coordinates from ORCA-job 5554optt
  Br  3.14969271784858      1.81196336167611     -2.56269017967383
  C   4.61621422052532      1.01906489346556     -1.71230379966399
  C   4.61263306017992      0.41906388067513     -0.50449879575328
  C   5.74868614363556     -0.52216093885481     -0.26652327779777
  C   6.91921745666707     -0.28049907696740     -0.89706142820779
  C   6.86635132507667      1.00504516583950     -1.61306394070171
  O   5.72071110564672      1.05888797205103     -2.44590064603506
  C   7.29033235253767      2.16643915121501     -1.11545584470642
  N   6.41161275338157      3.27600372539234     -1.15861899635085
  C   5.62661276131011      3.17795915608683     -0.15948580943437
  N   4.45788226896217      3.88498368885059     -0.00871601757444
  C   3.41575708596387      3.30619481338941      0.43102090684507
  N   3.10124128285220      1.98359015667779      0.73416877822314
  C   3.55120240807694      0.65272038250597      0.49308090691228
  O   3.03488900377165     -0.21962995674619      1.13791320395708
  C   5.55905706927775     -1.67465452059014      0.55175987297938
  C   5.43299668651061     -2.64534214991696      1.24264607699914
  H   7.77427301422506     -0.93613828927535     -0.82511566744266
  H   8.18443324787907      2.20251390204162     -0.50050914377639
  H   5.83853478351678      2.47806411781602      0.66168308834699
  H   2.56150472700716      3.94362699641362      0.64900838414376
  H   2.24888070929105      1.91554726542045      1.27628422247140
  H   5.30128381585643     -3.50324369716612      1.85737810624030
