25
Coordinates from ORCA-job 5555optt
  Br  2.45369401951743     -1.86715165599532      2.24248010169033
  C   3.86204993971880     -1.28365086344608      1.15012039406842
  C   3.78270397113504     -1.05272921886293     -0.16892234739575
  C   4.93334727392285     -0.35253886731010     -0.77405874135045
  C   6.13141333073118     -0.45337012821890     -0.19308827789975
  C   6.10562125969742     -1.38280472300316      0.94320285157094
  O   5.03089553994057     -1.14634519035505      1.81371924147239
  C   6.73433501095482     -2.55274469919135      0.96971958338213
  O   6.36604153192818     -3.56705716589384      1.80409411035101
  C   5.16310492407561     -4.16735244846789      1.58009082326946
  C   4.40358153203236     -4.20560994404832      0.48544757231144
  C   4.63888817278272     -3.80311681794577     -0.91869112753218
  C   5.76135403381682     -4.45318266485044     -1.64714889174482
  O   6.65874733118884     -5.04215894199818     -1.10884099701834
  C   3.89353048904911     -2.94583184454121     -1.63380001457756
  C   2.95049314898144     -1.93763361334481     -1.03785561360459
  N   1.71334648671319     -1.94744830995518     -1.27653761440958
  H   4.76493462640991      0.23665645385553     -1.66741082231870
  H   7.03104365968456      0.02562291571376     -0.55301899899327
  H   7.56970625572379     -2.75863599396815      0.31194604951773
  H   4.81829707690735     -4.64019914630241      2.48991951536393
  H   3.44723364886186     -4.69083258793549      0.64746906736440
  H   5.74380414490779     -4.31030783725694     -2.74463830482425
  H   4.07550172904185     -2.86278260047547     -2.70266604691696
  H   1.24833086227644     -1.18379410620226     -0.78353151177598
