25
Coordinates from ORCA-job 5557optt
  Br  1.65994053285468     -2.73530724540429      1.52229653503299
  C   3.09141963040751     -1.97350676366880      0.57789092613671
  C   3.02602842471909     -1.33271359839523     -0.60846315471790
  C   4.18221286223654     -0.47680382273934     -0.85226318853307
  C   5.34072580551288     -0.57078926635681     -0.15736697940264
  C   5.44624221904865     -1.77259819548770      0.64849049491233
  O   4.22488741590389     -2.06603076154128      1.27063311553019
  N   6.35995066067833     -2.65165577841235      0.60153283197549
  C   5.73766827536967     -3.90391121755771      0.29461321340844
  N   5.01147075805942     -4.69441402757468      1.05920766613049
  N   4.13320030977675     -5.26267624605259      0.19708010353540
  C   4.26944137079295     -4.80979892340245     -1.07843190753874
  C   5.41092074324621     -4.04355625000646     -1.06967118390069
  C   3.21333189169327     -4.31085203942120     -1.96857848443404
  C   2.00541984156625     -3.93072226024462     -1.54783764897102
  C   1.41531008091247     -2.64656105845712     -2.00467146760227
  C   1.90652569413517     -1.47531674627882     -1.56756981267423
  H   4.10223495476606      0.25097990156256     -1.65156303946574
  H   6.21554723569140      0.01632606516780     -0.39159641757782
  H   3.41870791767064     -5.86338682602742      0.56908188125833
  H   5.76825013611210     -3.41398771744590     -1.86659491880500
  H   3.61908053060024     -3.83615764649223     -2.85574117322318
  H   1.57723692983470     -4.37714987869779     -0.65608929273735
  H   0.55306660885591     -2.62971072232929     -2.66418515417058
  H   1.46917916955519     -0.55669897473627     -1.94720294416610
