28
Coordinates from ORCA-job 5571optt
  Br  0.91888788805285     -0.21449992008022     -0.39036040839266
  C   2.78906340466829     -0.26720452383371     -0.16454507696000
  C   3.52893789424711     -1.39994016842448     -0.05602158399644
  C   4.94605390715385     -1.31669622528972      0.16243398431415
  C   5.57089789315259     -2.67266288623509      0.27735830662618
  C   4.43235694060094     -3.61145688269759     -0.11003400708436
  O   4.56831029435386     -4.76007101268754     -0.40695186872993
  C   3.08931987749570     -2.84852496104313     -0.06616266849166
  C   2.40828087584281     -3.15964785484480      1.29591152760875
  O   1.90652790841314     -4.46466889682199      1.33360176355641
  C   0.96061142150390     -4.68863983879104      0.29992852109467
  C   1.61886505382950     -4.52598854455072     -1.05730252639646
  N   2.26304149199086     -3.21646043969927     -1.20863346282606
  C   5.53437907768979     -0.10515963624134      0.21886838782120
  N   4.78058035672485      1.01864308551338      0.08479462351266
  C   3.40283513094053      1.06052003281009     -0.09658142864490
  O   2.82429575699775      2.12222167770522     -0.18000134881865
  H   5.89039180031975     -2.91216401154082      1.29564159002174
  H   6.42063826135047     -2.84045033203306     -0.38400806736850
  H   1.59997252359986     -2.43128096326546      1.44214400497291
  H   3.12128368981272     -3.05898074814838      2.11700111276368
  H   0.12930908258090     -3.97786635225726      0.41309420436416
  H   0.58186867913580     -5.70032188613059      0.44026554162460
  H   0.87943159342335     -4.62921206396714     -1.85218109213233
  H   2.37301444462431     -5.30029623182407     -1.18770841269347
  H   1.55462895457968     -2.50651061519410     -1.34941823849957
  H   6.59557807283966      0.04267821797813      0.36373343045347
  H   5.21363772407512      1.93064198159471      0.12413319230039
