25
Coordinates from ORCA-job 5577optt
  Br  1.24861914949526      0.32679923297090     -0.23943929006060
  C   3.13626045417596      0.11028534155872     -0.15743122986464
  C   3.66533749526249     -1.17894224860030     -0.10219847339734
  C   2.82304195524675     -2.42435216600411     -0.15177728378277
  C   3.69034721546760     -3.65046535994696     -0.40962489691692
  C   4.92936485217581     -3.57333500572240      0.45389910557226
  O   5.70775597384484     -2.42099115558381      0.12323048740656
  C   5.05551999875598     -1.26009885983282      0.00230133971619
  C   5.82856953141472     -0.08688165807985     -0.02883261384206
  Br  7.69132068093859     -0.23851120458742      0.11971592023215
  C   5.16657084707799      1.12466848183861     -0.10925150427817
  N   3.83353275457679      1.21431407133050     -0.14515142196810
  C   5.84859523613427      2.46526006774479     -0.17263791951415
  O   6.86198443988252      2.66028411692034     -0.77657977606177
  C   5.11637844053191      3.61210855541981      0.52913563963375
  C   4.75365637138506      3.27141235786395      1.90016904909799
  N   4.49645975501526      2.98655842326680      2.97932419885255
  H   2.06467519895876     -2.31196473705823     -0.92680614565657
  H   2.28164432384113     -2.52779377527417      0.79323473341340
  H   3.99402861663503     -3.68804550407985     -1.45773950071150
  H   3.14089402590102     -4.56519789008888     -0.18867001971717
  H   5.59855317604322     -4.41654393003691      0.30382758786140
  H   4.66313708958401     -3.51479325221374      1.51394963715787
  H   4.20167352647417      3.82779452349815     -0.02602143700025
  H   5.76807889118076      4.48343157469690      0.51437381382788
