24
Coordinates from ORCA-job 5578optt
  Br  0.70010693955821      0.02336281558593      0.10066577297603
  C   2.58818337607100      0.06570526912100      0.09886234533461
  C   3.27614528702362      1.26243217255023      0.10083926699214
  C   2.72620443707776      2.66689980039988      0.10419901103884
  C   3.96985772264500      3.57150641013635      0.10533524843059
  C   5.17921571332032      2.64131680622024      0.10215789630605
  O   6.33320335323550      2.98034011445462      0.10179513346440
  C   4.67236771987833      1.24961404906150      0.09974114102614
  C   5.43216922133240      0.08987299508027      0.09670239228626
  C   4.72473410034932     -1.09513233149329      0.09466692591994
  C   3.29480150503458     -1.13125417525877      0.09573716809637
  C   2.93541810864479     -2.51729858113156      0.09287433130703
  C   4.11518104761130     -3.21153870191192      0.09038621919884
  N   5.20511927343664     -2.40972749000180      0.09133489962508
  O   3.95651319348144     -4.51639269892732      0.08717183993968
  N   2.55657745925220     -4.74317137090096      0.08740028554029
  C   1.98409358009678     -3.57320280877101      0.09052033477619
  H   2.09530641009008      2.82703957649940      0.97982414294374
  H   2.09418345549392      2.83082798390764     -0.76991805998669
  H   4.02893715571757      4.21476178927470      0.98343482476337
  H   4.02754949412907      4.21892134342765     -0.76979620282472
  H   6.51401880918081      0.13858345675590      0.09599578237992
  H   6.17022512966032     -2.68977399041621      0.08995851067654
  H   0.90588750767905     -3.53569243366248      0.09111078978935
