25
Coordinates from ORCA-job 5580optt
  Br  0.90849685178698     -0.23157539052658      0.22840703404353
  C   2.78140328126813     -0.05518939694288      0.10315123087963
  C   3.57277276984792     -1.13149367305094      0.03392284955815
  C   3.12273759316217     -2.57539023577539      0.03710462339192
  C   4.39512694254545     -3.38170039096491     -0.22739244214468
  C   5.56024615060137     -2.43159012536557     -0.02174628572944
  O   6.70620208091239     -2.77147615702704      0.09487251255944
  C   5.01423027759370     -1.01875303825656      0.00381231592999
  C   5.73135428367783      0.12556980014257     -0.01106005680958
  C   7.25824593469950      0.11391433883718     -0.01496360069028
  C   7.78868411508283      0.63711901235186     -1.28193098188710
  C   8.20688858540769      1.04430971180714     -2.32626851835076
  C   7.79096790390600      0.83355299562130      1.15017505204556
  C   8.20815574490108      1.40543433535816      2.11391974806938
  C   5.09340869002481      1.45940070472858     -0.05748336530002
  N   5.64669070984195      2.58760403607121     -0.18463637167301
  S   3.32090028351251      1.58159360227874      0.10949013557810
  H   2.35195898233399     -2.74700415953427     -0.71344192484940
  H   2.68547950661282     -2.82641988565181      1.00560287149599
  H   4.44924086633415     -3.71978893863727     -1.26524611263506
  H   4.51936735393095     -4.25826214730436      0.40507025713688
  H   7.57751244988687     -0.92528585497208      0.06931494666622
  H   8.58461472286277      1.40978749681343     -3.25133665804443
  H   8.58282977036452      1.91595859868039      2.96889078225622
  H   6.66048414890154      2.53468476131912     -0.24922804149724
