25
Coordinates from ORCA-job 5586optt
  Br  0.93106081692190     -0.19849775721024      0.15213170390840
  C   2.79028577109977     -0.03209724558720     -0.00363122465476
  C   3.59102603709323     -1.09618826606306     -0.13190642159977
  C   3.29974286492425     -2.52657767592535     -0.16554242228266
  C   4.43235671851484     -3.24748390342877     -0.23583320301991
  C   5.60676680924617     -2.34262547623254     -0.27369912485378
  O   6.77176018695249     -2.64322493697930     -0.40315649867198
  C   5.04741213619975     -0.95781343541799     -0.17645494499634
  C   5.70529475944575      0.20371316720141     -0.12273620552027
  C   7.21245517198968      0.26278583740281     -0.02490619355245
  N   7.88284371761558      0.00197691816261     -1.27998190851287
  C   8.20762174861327      1.00017790514418     -2.12447265763904
  O   8.00210989640157      2.17595835553092     -1.90294258969815
  C   4.88818690775007      1.44189896704509     -0.17724831457911
  N   5.32691430803528      2.59863883545130     -0.43592703687697
  C   3.37842036277274      1.32347041541889      0.03363044594568
  N   2.64792212299375      2.33783253383182      0.20937999671155
  H   2.29228329275563     -2.91624674281820     -0.13135312679504
  H   4.51973399550160     -4.32242300652920     -0.27875200649759
  H   7.54115799296898     -0.48656910052991      0.69227260086251
  H   7.53055732722094      1.24142398592526      0.32986896800276
  H   8.01193645210550     -0.96246194260282     -1.54585743620480
  H   8.69377250361236      0.64929292329929     -3.04607325085807
  H   6.33139776895579      2.62156444011608     -0.63274166345424
  H   3.23298033030902      3.17847520479496      0.18593251483689
