23
Coordinates from ORCA-job 5590optt
  Br  4.22657444242678     -0.71422079892684     -3.07362335832241
  C   4.92139496930819     -0.67967401789120     -1.31165888983126
  C   4.53164538652963     -1.63426044611768     -0.46055010925546
  C   3.63994373874116     -2.78759147877320     -0.59124988531121
  C   3.59394645939257     -3.47155450763103      0.56297045628438
  C   4.45445636885077     -2.81515546682054      1.59572492693323
  O   4.62690567954924     -3.16354757981419      2.73586691151569
  C   5.02606161194032     -1.63542746253750      0.89846493318880
  C   5.75528720413386     -0.62288499972276      1.35662541357611
  N   6.13227371715271      0.42795102048408      0.52918800951118
  C   5.89411206792393      0.36672308644817     -0.91284545528635
  C   6.44265584087528      1.10267836547011     -1.91881710443770
  O   7.40062945754378      2.08969192552088     -1.91136126158245
  C   7.74655562424201      2.34788588225065     -0.61751351212680
  C   6.75906578303465      2.63750969821863      0.22727700185408
  C   6.67238715091403      1.57139367844926      1.24152208099707
  O   6.99316918117285      1.50407785148530      2.38709929275587
  H   3.11295835141748     -3.03013403933778     -1.50263750569592
  H   3.02858919083852     -4.36857890435269      0.76558520880280
  H   6.07954721312104     -0.52698249660761      2.38294770949137
  H   6.11655974374974      0.92052575938357     -2.92730196962960
  H   8.75008049703152      2.04039833132309     -0.34190320404165
  H   5.80520032010989      2.87617659949928     -0.23280968938976
