27
Coordinates from ORCA-job 5592optt
  Br  1.19017217015175      0.16836945933419      0.10594915272136
  C   3.06927071527441     -0.05169472158221      0.03356191121255
  C   3.61892369964648     -1.32432865327644     -0.08529452240958
  C   2.79051933663051     -2.57222056850457     -0.22364349140411
  C   3.66124504819426     -3.73998192011509     -0.64142403179761
  C   4.96385260136221     -3.71939031012011      0.14446312018419
  O   5.69733011906613     -2.54998533065522     -0.18027069682800
  C   5.01090951969108     -1.38326210718312     -0.08843699441491
  C   5.75576454632099     -0.20731410605961     -0.01856541719243
  N   5.20119988486416      0.98893184747988      0.07147011727622
  C   3.87514382641716      1.07158391365968      0.10833014439372
  O   2.92361178938587     -4.93082360429958     -0.35157974009811
  C   3.29387418484625     -6.05430676974381     -0.96569075778204
  N   4.25502468239065     -6.13030405820162     -1.77318089015704
  C   4.51981067766331     -7.43259910372996     -2.34889117595773
  C   5.81098279352588     -7.94817068962249     -1.87217204395686
  N   6.81057753756698     -8.35360712445117     -1.48796489309400
  H   1.98888879620883     -2.40929907886640     -0.94497835210456
  H   2.31238550898766     -2.80806312158471      0.73157948204083
  H   3.89259596506456     -3.71055924672217     -1.70774966766093
  H   5.59733392390287     -4.56309660934837     -0.11480889357232
  H   4.74311945988161     -3.73499487734827      1.21780082969482
  H   6.83781698098338     -0.26921691969398     -0.03969784965038
  H   3.43630470799398      2.05716234823668      0.20038826209087
  H   2.64763690242171     -6.88481510425179     -0.67264170254435
  H   4.57873047866094     -7.34204731444196     -3.43458575633984
  H   3.75197414289637     -8.17996622890772     -2.11596614264976
