28
Coordinates from ORCA-job 5594optt
  Br  1.03468125251010     -0.64612016399438     -0.10895764395916
  C   2.83596217137757     -0.12697475228688     -0.22889728643518
  C   3.85308070099235     -0.94688121276390      0.05941008899744
  C   3.82209626152963     -2.38346704535459      0.51176253798881
  C   5.29032600423217     -2.82900306062921      0.46882861951592
  C   6.12245761578219     -1.61348110785604      0.07955510192486
  O   7.31132795758071     -1.63705175850449     -0.11069128396996
  C   5.19962974219207     -0.45361051081426     -0.09299286359636
  C   5.45092129300153      0.83292851747655     -0.45922066384750
  O   6.62864032828115      1.43671418698033     -0.62410427433305
  C   7.73103625443557      1.19602500321948      0.26243368304997
  C   8.94891553766371      0.82379733311463     -0.55112133899932
  C   10.12163999278948      0.47880513290157      0.31882860978021
  O   10.10258014445856      0.51662723883785      1.51868436535773
  C   4.32013908557495      1.73187816284010     -0.79111732715006
  N   4.40075474430631      2.93540556955507     -1.19389387132286
  N   3.06552500190980      1.15605569137535     -0.64177732673937
  H   3.18926563771869     -2.98705064854774     -0.13878980970347
  H   3.40675265086579     -2.45946223230862      1.51814525816548
  H   5.47687229811681     -3.61207008405249     -0.26643871873327
  H   5.65886097290372     -3.19952795437418      1.42585612010442
  H   7.48933667619035      0.41578818362633      0.97704959842175
  H   7.89798384867701      2.12611237015728      0.80675171910148
  H   9.24320009553697      1.63769095106037     -1.22143905028211
  H   8.73072586291734     -0.04352737597909     -1.17817317375146
  H   11.03901264107657      0.17376182280486     -0.21907098213335
  H   5.37383372477895      3.21809592896428     -1.25292450071847
  H   2.28944150259976      1.76654181455180     -0.85369558673311
