29
Coordinates from ORCA-job 5595optt
  Br  1.17632781089646      0.04769620106618     -0.46806780788634
  C   3.06166389311557     -0.03594269069633     -0.28880263779992
  C   3.66748089964705     -1.24627049970332     -0.23762277007775
  C   2.85477460034671     -2.51982002284329     -0.33536495097309
  C   3.70394404402762     -3.77621952095982     -0.47935331169038
  C   4.90962071069838     -3.66595776463804      0.42177068143694
  O   5.71318812087235     -2.57571875980249     -0.00411327665270
  C   5.10870864074111     -1.35166356049089     -0.05155382652015
  C   5.92445573317867     -0.29103637674818      0.04101611494213
  S   5.44762186123954      1.35524924335569     -0.05222141599747
  C   3.68891440408707      1.28599662778381     -0.21329273641847
  N   3.00664449753593      2.35275951411568     -0.26988503670473
  C   3.65560025562545      3.63423159222056     -0.19408013787309
  C   2.64433038696956      4.74965262611563     -0.32827497312908
  C   1.46316574765889      4.57884833310295     -1.19410609881026
  N   1.32676628116612      4.58896229265231      0.26278204099886
  H   2.15276837499715     -2.42984885410284     -1.16359265901361
  H   2.24121232624248     -2.58876332805199      0.56849325245281
  H   4.05427650177010     -3.89079258272014     -1.50717146064815
  H   3.11321077412724     -4.65764268535093     -0.22863546761086
  H   5.55426672286742     -4.54045137354664      0.36703030834196
  H   4.61035615513913     -3.51521120708818      1.46599928025289
  H   6.98638502040686     -0.44337536064163      0.17679907537780
  H   4.42089790342889      3.73568233483605     -0.97774559224724
  H   4.18135150533858      3.73102685923129      0.76804484029445
  H   3.06424856401650      5.74262243012183     -0.21253539507744
  H   1.35955485328097      3.62321031796020     -1.69387839447690
  H   1.03551067597344      5.43326466382272     -1.70168747704647
  H   1.23175273460474      3.62551155099979      0.57704983255629
