25
Coordinates from ORCA-job 5598optt
  Br  1.14806375565067     -0.24044267798294     -0.56743971600380
  C   2.92287571445146     -0.07783700212337      0.02759846584198
  C   3.57976769711528      1.14096747954890     -0.00590591349235
  C   3.09081326508726      2.47607366221012     -0.49064797560239
  C   4.29467304263579      3.41563827894827     -0.30161239970813
  C   5.40154910020414      2.58798266166801      0.34943015105926
  O   6.47439128280738      2.98650003981048      0.69769682816892
  C   4.88216307229836      1.18642811614963      0.46826976272313
  N   5.56688559432904      0.15796216148031      0.95525763505585
  C   4.93430406541580     -1.00124244943016      0.97200342138586
  C   3.62110028989500     -1.16436296226533      0.52420476536009
  O   3.03921975789021     -2.40455845076362      0.64118252470932
  C   2.96820709682114     -3.16242828321344     -0.48875173497196
  O   3.36574880351197     -2.80131858463358     -1.54947829001445
  C   2.30140935890794     -4.48963567835737     -0.19589538672177
  C   2.97160601156708     -5.22782982281991      0.86925369634239
  C   3.53657328062018     -5.83484335721773      1.73106422975601
  H   2.22005115064557      2.79196315208517      0.08659068406403
  H   2.76919103275007      2.40826899526725     -1.53098345394878
  H   4.07424096159219      4.27321185911417      0.33282714153459
  H   4.67248996792180      3.80453165203966     -1.24750901680993
  H   5.45851060208797     -1.86893322089166      1.35779594582053
  H   2.29688776648221     -5.06164541769717     -1.12202837091416
  H   1.26659351539646     -4.28235559474409      0.09018761726219
  H   4.03568381391500     -6.37509455618160      2.49988938910354
