24
Coordinates from ORCA-job 5603optt
  Br  1.06962084425328     -0.08357611105745     -0.27494317966634
  C   2.92747553696576      0.00552355128924     -0.02567870713650
  C   3.59660599803305      1.17807916081913      0.07505178120324
  C   5.06180806064785      1.22919702503169      0.18178810925737
  C   5.75253277702751      2.57158950835223      0.22649069659680
  C   4.87676342809444      3.64207880746359     -0.37856926842876
  O   3.63779732650252      3.62545324882449      0.31876490744057
  C   2.83157653720893      2.52739018902515      0.04042639487242
  O   1.77902344444975      2.57787471761167      0.95357427056054
  C   2.10181995327746      2.34787515747639      2.26583770220810
  N   1.24712161363341      2.23343738178552      3.16676208638780
  C   2.23529039589291      2.70921849430785     -1.31721562478943
  N   1.88770956392707      2.89177592843932     -2.39220220551843
  N   5.82717308555598      0.20540591155628      0.22871202846588
  S   5.31379813482653     -1.34802067359139      0.19679423111707
  C   3.56203845590749     -1.33078732869464      0.03148885913154
  N   2.87763191811866     -2.39264017391507     -0.03680892090567
  H   6.71006959876087      2.48364258631022     -0.28435500170641
  H   5.95132103135895      2.83289920973630      1.26935831226503
  H   4.70734380883758      3.48526979256730     -1.44936263707857
  H   5.28848429578882      4.63815080420058     -0.23739211801419
  H   3.16826248237491      2.28384792905548      2.47028441912939
  H   0.29966106152604      2.32164781607339      2.79671886642508
  H   3.44707064703014     -3.23633293266729      0.01747499818348
