22
Coordinates from ORCA-job 5604optt
  Br  2.13741790081600      0.64465772286145      0.01200690487859
  C   3.86485933698863     -0.04894548687710     -0.00365586037373
  C   4.17231846845480     -1.36277672652755      0.03270911876461
  C   3.43944436305322     -2.59242816349355     -0.01389122629992
  C   4.35247764402634     -3.62006756911083     -0.10655982628204
  C   4.02205000074622     -5.05126151824339     -0.21664114252261
  O   2.89750394900603     -5.47858410433842     -0.21173426557974
  C   5.68730646617578     -3.06999288673990     -0.08255470455009
  C   5.58392498235429     -1.70443279291030      0.00214613821079
  C   6.58432828945418     -0.68457825216164     -0.16789145283066
  C   6.12830250570405      0.58250378089983     -0.18378170309370
  O   4.80239631635766      0.89395277197544     -0.07531672740448
  C   8.07381841836948     -0.89005791183687     -0.34518302294145
  N   8.76496488671713     -0.02744087584038     -0.93334468667801
  O   8.66957149478969     -2.01409367320247      0.23585830761760
  C   7.67974720858211     -2.89581379852102      0.58140621151225
  N   7.00781491302405     -3.49206537036838     -0.32143786945137
  H   2.36660729866436     -2.70432299958826      0.00046544264578
  H   4.88857130040110     -5.72955333512831     -0.30933674416930
  H   6.74011258391419      1.46338564458213     -0.28832651043895
  H   9.75073265465335     -0.28464796162814     -0.93718094458804
  H   7.38772901774729     -2.81043649380231      1.63024456357449
