29
Coordinates from ORCA-job 5609optt
  Br  0.23707550714709     -0.04455090792374     -0.14489239596759
  C   1.72461034374924     -0.96042136490207     -0.88760702151526
  C   2.49335718914512     -1.75035094629135     -0.12177749103483
  C   2.04109954062329     -2.41392044966099      1.15679848525204
  C   0.75078380295779     -3.26939550647505      0.99880680473020
  C   0.81615090558737     -4.57649865780533      0.17469616155467
  O   -0.23777468602901     -4.68682200558707     -0.82245837680859
  C   -0.12030819663424     -3.72793574192498     -1.76832531474262
  C   0.99783509425272     -3.24165946772847     -2.35057305148092
  C   0.71125940152638     -1.90677500872130     -2.81469657003798
  C   -0.64466823580232     -1.73743733223782     -2.66489344539438
  N   -1.14935909673376     -2.85248711386471     -2.04100372644894
  C   1.84125437729031     -1.02443761815619     -2.36603489487732
  C   3.09000666163468     -1.22503308829206     -2.81630943789003
  N   4.11044619241693     -1.42069605620830     -1.90060190747357
  C   3.83865535615731     -2.03775077940031     -0.66705060232300
  N   4.68481816477397     -2.70845765673547      0.01183670298533
  H   1.83544067246179     -1.65573059531758      1.91576892781560
  H   2.86560955162695     -3.02148470347183      1.52843505855980
  H   -0.03926550238045     -2.65131137518465      0.57314395757430
  H   0.41741347415405     -3.52075913811503      2.00702023273682
  H   0.65987027067126     -5.44542391955398      0.80955077056364
  H   1.78365844092234     -4.69242710413217     -0.31665576609557
  H   1.99364894772298     -3.62869484175603     -2.21259362569102
  H   -1.26990627284337     -0.88017220155722     -2.84525161118536
  H   -2.11224429434301     -3.01158318287090     -1.79787038506881
  H   3.30450733422736     -1.45204290231135     -3.85303573057261
  H   5.04843431245294     -1.53756224756824     -2.24971504162798
  H   5.58559074326427     -2.78317808624578     -0.45671070553601
