19
Coordinates from ORCA-job 560optt
  C   1.03433798995568     -0.06296032066651      0.68497937415559
  C   2.48437569935288     -0.45615700859961      0.43708632663367
  C   3.34420165561230      0.74424454963213      0.02720105050807
  C   4.75667369467210      0.35992220951970     -0.31980167283883
  C   5.76822876177719      0.57974570012634      0.52173108433375
  C   5.02099738974361     -0.29331791076039     -1.60887935927926
  C   4.12669566803121     -0.51644909951242     -2.56755061245748
  H   0.43711467903404     -0.91948658513685      0.99882112447697
  H   0.58253667771921      0.34638251081215     -0.22097201470715
  H   0.96285787460431      0.69955293974258      1.46308005667164
  H   2.53654707694945     -1.22459891297363     -0.33675441298423
  H   2.91374424959185     -0.89803994594289      1.33959986482260
  H   3.35980547505036      1.46547574840922      0.84719654212088
  H   2.87690017619495      1.24830151583938     -0.82435666161107
  H   5.61413385059375      1.07016755359094      1.47498301990819
  H   6.77933343200544      0.27753079724049      0.27724926487257
  H   6.05050419245988     -0.59916641949192     -1.77056291089277
  H   3.08653700881334     -0.23285192597724     -2.46353028397628
  H   4.41247444783841     -0.99329539585148     -3.49551977975686
