24
Coordinates from ORCA-job 5610optt
  Br  0.83413601891752     -0.06751109225515     -0.47147426822869
  C   2.72014041145965     -0.05756762602847     -0.30241846676958
  C   3.44657292654710      1.08727724469440     -0.39021169217946
  C   2.76256438258559      2.36325644174994     -0.63283529009297
  C   3.10244394040311      3.57153281577578     -0.16275105740004
  C   2.21774333686747      4.70532376266292     -0.51931544763455
  O   2.38838809029064      5.83267413902468     -0.13918963506654
  C   4.21891099998173      3.85742300233323      0.77381484687109
  C   5.41052749469872      4.61656299200113      0.32919743177193
  N   5.50757802943141      3.19964199121051      0.64138670716573
  C   5.65632693676578      2.31788275134014     -0.50830728981648
  C   4.90023049942961      1.03188852100275     -0.29029409327514
  C   5.61373236054012     -0.08758710972120     -0.04789337999824
  C   5.09385560966890     -1.42310503104209      0.15715351655271
  O   5.74227378765948     -2.40406656519540      0.40573843756486
  S   3.31424220315143     -1.63774491234032      0.00109502532039
  H   1.86930246716261      2.31027293608761     -1.24712858857795
  H   1.36026800453449      4.44237839586275     -1.16829984200037
  H   3.89818496241012      3.99802756668050      1.80109048585914
  H   5.90447015296684      5.28977750718223      1.01560530678591
  H   5.44733376393991      4.90085929811895     -0.71736857725605
  H   6.71707407042590      2.10477436114609     -0.63162245513364
  H   5.29622243904173      2.78392326034944     -1.43498520068178
  H   6.69447711112012     -0.03289465064047      0.00801352621974
