24
Coordinates from ORCA-job 5615optt
  Br  1.24165771318442      0.16984991597526      0.05037234678731
  C   3.12156521885764     -0.04237566396453     -0.11747714519005
  C   3.69363640277682     -1.29332989561920      0.01844051779631
  C   2.94527388646470     -2.56439678511438      0.34576797427339
  C   3.64210627832396     -3.87005231966225     -0.08165110764772
  C   3.41503463187853     -4.19250080206257     -1.55423641991998
  O   3.29713094534636     -5.30798800280576     -1.96962302850844
  C   5.11674353281976     -3.73423559634069      0.09071788768403
  C   5.76640676256388     -2.55050617153688      0.06508785969192
  N   7.12338992726786     -2.80774637376301      0.08288051173555
  C   7.35667501614045     -4.16922217151752      0.11042788393534
  O   8.40878602252603     -4.75686124363970      0.13895076329269
  N   6.07028626998486     -4.72190435314960      0.10810869784536
  C   5.09740306870618     -1.28528249803160     -0.07335836304038
  N   5.81561641264219     -0.18487041785418     -0.28702936085848
  C   5.12311979207597      0.93940360370387     -0.42035915065724
  N   3.80651286478586      1.06445333264134     -0.34666946957557
  H   1.94831015944803     -2.52556130836333     -0.09417550288329
  H   2.79953687369230     -2.59315218284918      1.42998378446697
  H   3.25225850228253     -4.71085161752919      0.49443689131429
  H   3.40783416031216     -3.31592573729628     -2.23252167167402
  H   7.85341942947537     -2.11547963668469      0.07127769504462
  H   5.91528541527637     -5.71642814555271      0.09515537387212
  H   5.68701071316773      1.84596407101682     -0.60550696778474
