17
Coordinates from ORCA-job 561optt
  C   1.53740360584167     -0.48640598311945     -0.23860797454442
  C   2.76938508026840     -0.19218178503485      0.16816094685295
  C   3.42560503432087      1.08406981282412     -0.07813881971711
  C   4.66079090429842      1.36792214179604      0.33472613609061
  C   5.39487475378954      2.62864058037387      0.09021102642781
  C   6.21182299059963      2.78447884018078     -1.16875436775946
  C   4.97278407914005      3.60306976594805     -0.96299928244476
  H   1.08605045541594     -1.44730772565481     -0.03235117896131
  H   0.94496339400852      0.23117714577744     -0.79454475346040
  H   3.34241189255170     -0.93052087466075      0.72210254178444
  H   2.85168671859273      1.82822952555729     -0.62279135821491
  H   5.20298260866722      0.60959864183816      0.89576351240146
  H   5.85037738817230      3.05807470192588      0.97500047956770
  H   6.15834089476403      1.97657501277956     -1.88489988968249
  H   7.17254523900414      3.27350794803213     -1.09396187195243
  H   5.08782807311906      4.65563977062509     -0.74843168390918
  H   4.11214688744576      3.35843248081145     -1.56848346247851
