28
Coordinates from ORCA-job 5620optt
  Br  1.25418036372013      0.56096240058501      0.49522290239046
  C   3.07963603337117      0.27253296560550      0.05499260742703
  C   3.54223861700467     -0.96172463091520     -0.40652156421958
  C   2.52226088661129     -2.05657267881279     -0.74659019651132
  C   2.08637977525576     -3.11757624836940      0.30906422327244
  C   3.10057993743123     -4.18766142849517      0.76150636131027
  O   2.79372091372033     -5.27510427582645      1.15132785511282
  C   4.45403568193874     -3.57877953843583      0.61429888391279
  N   5.80263560187992     -3.92812019451948      1.03933114106668
  C   6.58388392361947     -2.82914288163365      0.37194632939021
  C   5.74375192933821     -2.31106636502299     -0.86742929712843
  C   4.77672908014627     -3.45330256112014     -0.88499496219401
  O   4.51003840352654     -4.23935505411091     -1.74398938618193
  C   4.95001140776960     -1.03448371319460     -0.58549829345430
  C   5.70696998897802      0.11482621446124     -0.39052911664271
  N   5.22618414919588      1.29108543953287     -0.00961018947308
  C   3.92851414117127      1.35830881640551      0.23366445778633
  H   2.83093543363270     -2.55907581658588     -1.65980086051787
  H   1.60873067370350     -1.52967826407605     -1.01490501071702
  H   1.21154954227008     -3.64137689933956     -0.07443311811255
  H   1.77098401462627     -2.60223058840306      1.22321807281917
  H   4.30415814963487     -2.58789123784152      1.04023790659387
  H   6.07644464277024     -4.83849842697025      0.68290633624611
  H   7.55034746032797     -3.20538126100646      0.04618489126149
  H   6.73867260787743     -2.02830722962942      1.09522111950356
  H   6.34803803380158     -2.22231646904471     -1.76731379488792
  H   6.78108361618052      0.06607635343352     -0.54586208538543
  H   3.53230499049628      2.30485357332993      0.58135478733293
