21
Coordinates from ORCA-job 5624optt
  Br  1.04515924338011     -0.22858553480900      0.20794364781822
  C   2.91150272690999     -0.19620244786113      0.02045969039237
  C   3.66260761489510     -1.29819653143018     -0.00604130133287
  C   3.31419946442028     -2.70925359508428      0.10323617921495
  C   4.46133167311612     -3.41232927926749      0.03463418571471
  C   5.58766119669156     -2.49438676144730     -0.12195369868528
  O   6.86040845733570     -2.95413612294933     -0.25679350593026
  C   7.84711717083916     -2.30732395634383      0.39687872609867
  N   9.08207537290391     -2.40331066694137     -0.02992346890421
  N   9.73869181613909     -1.69168096607418      0.90797344710634
  C   8.88400639445314     -1.21166396902129      1.81654854843558
  N   7.65928062614548     -1.59115985599238      1.52513075789481
  C   5.11076534225971     -1.23615056981183     -0.15662576794070
  O   5.84720502724979     -0.09696880606396     -0.31182555569023
  C   5.33561722472824      1.13764545824872     -0.28918503761123
  O   6.02316526502227      2.09970407851584     -0.40195211233208
  S   3.57139308183810      1.40906783764775     -0.10582216542142
  H   2.31092756564024     -3.08241628022621      0.22432188686516
  H   4.57907724127437     -4.48357494759779      0.08974343144635
  H   10.73554431282403     -1.57485549831418      0.84436275270095
  H   9.18226318193353     -0.60622158517656      2.65688936016016
