23
Coordinates from ORCA-job 5633optt
  Br  1.06840373845876      0.00112576021269     -0.05631895109892
  C   2.94867101864493     -0.03558574682174     -0.04784800388002
  C   3.69021766143556     -1.17805903079300     -0.06191669494716
  C   3.11896257203069     -2.49911455661348     -0.08446537272914
  C   3.89993585280237     -3.59057902372331     -0.09643866223086
  C   5.37160468567450     -3.51341405599135     -0.08746118665357
  O   6.05866451052068     -4.52387541898893     -0.09632033946182
  C   5.93447845840774     -2.17210271526996     -0.06697488434122
  C   5.14529064905491     -1.06815005168632     -0.05418473186410
  C   5.67906987362273      0.27878274449158     -0.03347382130940
  O   7.05557391236471      0.31158885720878     -0.03226668004522
  C   7.78105576458539      1.42380550231791     -0.01464397887713
  O   7.38057991565599      2.55149985471546      0.01177291885322
  C   9.28241323730437      1.11778571874066     -0.03414893160789
  O   9.72681987516213      0.01501849911797     -0.05557105149300
  C   4.88016185297025      1.36480807291488     -0.01992263803144
  N   3.51662414026684      1.19213584360971     -0.02713997736937
  H   2.04106729296217     -2.59389868651048     -0.09161335270905
  H   3.47542913284425     -4.58623084860496     -0.11403463887610
  H   7.01218085043192     -2.08771270307068     -0.06177223972930
  H   9.89559710511687      2.03384626850001     -0.02683345931964
  H   5.23465315263556      2.37896263484102     -0.00399078228777
  H   2.92054474704659      2.00336308140356     -0.01543253999110
