28
Coordinates from ORCA-job 5634optt
  Br  1.34027868879934      0.18277356524925      0.22364072282592
  C   3.22613491033271     -0.05104819639030      0.09825179323572
  C   3.80585093006711     -1.30811094134966      0.26994530213633
  C   3.04981810729385     -2.57033839835458      0.57761858876612
  C   3.19779780891928     -3.65396425551728     -0.49426156017176
  C   4.54604215460051     -4.35684394200167     -0.46693721816241
  O   5.64946079247232     -3.53253807296987     -0.76024809822723
  C   5.99156725441595     -2.58736753183635      0.22923885385314
  C   5.19451350185770     -1.30697710491385      0.12135140695248
  N   5.89876547606229     -0.20383291923145     -0.12461623748725
  C   5.22334875864104      0.92948334824895     -0.24731734228118
  C   6.00381158419131      2.19086991453870     -0.53346835135242
  C   5.81759415646743      3.20128841154618      0.50474821746632
  C   5.66301411816465      4.02418720322675      1.35980576374320
  N   3.90218371589077      1.04235997401440     -0.15919675253021
  C   4.60021872004172     -5.49218253939852     -1.47447729765882
  O   3.66411893881289     -6.19326396504119     -1.72773524371421
  H   1.99673338861719     -2.33309476660938      0.70185505155095
  H   3.39516988023809     -2.96444368896974      1.53985190327235
  H   3.03897902472041     -3.22474329063004     -1.48638032412956
  H   2.43611154903006     -4.42131417212920     -0.34949723616964
  H   4.68895540831729     -4.81497827049329      0.52683077664725
  H   7.04005411431110     -2.33832440018006      0.08411896105276
  H   5.86570379938236     -3.02512079071345      1.22893444485557
  H   5.66456760648241      2.59581771232430     -1.49021345823767
  H   7.05753723624142      1.93194859741812     -0.62529975312918
  H   5.52017975030928      4.75760854269965      2.11689698122557
  H   5.58748862531931     -5.62885002253634     -1.95343989433214
