26
Coordinates from ORCA-job 5641optt
  Br  1.17740215992859      0.19487089215890     -0.03862232867424
  C   3.07667175890734      0.05092336843694     -0.00151593125551
  C   3.67026948450046     -1.22061459741583      0.00307926748840
  C   2.84361459507015     -2.47758080572679     -0.02397485482388
  C   3.66101740641120     -3.74028674380710     -0.32884244553083
  C   2.77491289019871     -4.92881214789883     -0.02429076371299
  O   2.89852887758449     -5.60545260644109      0.95490085952388
  C   4.95240452049885     -3.75061030027770      0.49117081132480
  C   5.82375822038072     -2.55474374118195      0.09459014144539
  C   5.06268846027848     -1.25461875339255      0.07206210378228
  C   5.76293820784597     -0.05304146737847      0.10451587642183
  C   5.05745455822785      1.13297690707742      0.07536567775939
  C   5.75739105324572      2.45187813235257      0.10677871028080
  O   6.95172286709957      2.55659850410176      0.13864960303299
  N   3.72447153165326      1.18528360178030      0.02846196327960
  C   5.70835218927509     -4.98613919266023      0.27203982173232
  N   6.33207092656377     -5.91908845346218      0.04155316357873
  H   2.04248301238715     -2.37166543115469     -0.75697343992629
  H   2.34900809900505     -2.58901913953269      0.94779660041528
  H   3.91177718389807     -3.75663915972021     -1.39486459888787
  H   1.95795885436107     -5.11137976654514     -0.74765972978943
  H   4.69301214603255     -3.70158794913562      1.55205930724233
  H   6.24231259064851     -2.73600060217187     -0.89967609686635
  H   6.67174589399326     -2.46752026546852      0.77445042263425
  H   6.84423067808440     -0.02457427235977      0.15782560975161
  H   5.08280183391964      3.32484398982337      0.09812024977351
