30
Coordinates from ORCA-job 5653optt
  Br  1.50675223268985     -1.34128355459580      0.75066371626547
  C   2.84840122247327     -0.03585900659027      0.43030075847467
  C   3.03490642000733      0.97853702439135      1.30682820672979
  C   1.99477587493801      1.50219161685672      2.24624831311606
  C   0.95512877333295      2.29392415839394      1.41476892295226
  C   1.54560568339558      3.22790607102162      0.34042833348114
  O   1.94219326554616      2.46152857067257     -0.77765149490145
  C   2.60727936649635      3.15556747161745     -1.82215669666668
  C   3.05546934538376      2.14244201128445     -2.87499296474153
  C   4.32174148578433      1.30668498900652     -2.54786685807245
  C   4.19731962406195      0.85303418141437     -1.12929274821328
  N   4.74972233984679      1.66803301318280     -0.19253286038735
  C   4.18256534385217      1.84807446101998      1.07370007067431
  N   4.57667912534707      2.72264477636854      1.91762473182681
  N   3.39308575908114     -0.10335413325891     -0.81494541597629
  C   0.53508129449388      4.22555075174723     -0.08264203651762
  N   -0.23255684279194      4.99589206024266     -0.44353510305192
  H   2.46863008850592      2.15043371713654      2.98023257102169
  H   1.47897010744868      0.69933062579753      2.76961161710721
  H   0.33673542080723      2.89271669195991      2.08453179139475
  H   0.29635808932914      1.59984796687065      0.88828284662948
  H   2.40027449365617      3.78263915541044      0.74821819261634
  H   3.45727318081466      3.71834472487039     -1.40970128109682
  H   1.92117212094751      3.87735308514336     -2.27708357368125
  H   3.22711897726507      2.67292057380654     -3.81274093643599
  H   2.22303334156975      1.45523310730843     -3.03318825340795
  H   5.22265544212888      1.90839402753581     -2.68566079315807
  H   4.37048385345365      0.44918903575121     -3.21562197456933
  H   5.41298147802757      2.36545958233442     -0.49674761213663
  H   5.38116309210710      3.24962324329955      1.58492053072461
