23
Coordinates from ORCA-job 5656optt
  Br  1.07524240780305      0.14300314993530      0.05238547087845
  C   2.94607583815839      0.00123333331768     -0.05877865577738
  C   3.58049039208097     -1.21546201960767     -0.07578844788943
  C   2.80563065844489     -2.50421225018867     -0.02608533716138
  C   3.59853954577108     -3.74352251016470     -0.43724255636837
  C   4.92844148936328     -3.69802691367470      0.25078959342926
  O   5.35076459451080     -4.51597268797424      1.01375741570559
  C   5.75423003372719     -2.45712050186714     -0.10896083243159
  C   6.34834980896790     -2.67102092690641     -1.42903399055961
  C   6.79362168328038     -2.89002540975911     -2.51696620493815
  N   4.93665843721608     -1.22447005305908     -0.09731840955579
  C   5.72919447525048     -0.03368627937920     -0.10668333172376
  O   6.92751400190854     -0.13439743126137     -0.09927481513136
  N   5.05150834858756      1.16147851022256     -0.12306533007087
  C   3.75647368832037      1.16374030848746     -0.09783362233990
  C   3.12161391390786      2.47050615024981     -0.11756454114846
  N   2.61787085297973      3.49856117856375     -0.13637229617796
  H   1.92330443853781     -2.39180903343451     -0.65380656841231
  H   2.43488185695184     -2.61644139401421      0.99769566319667
  H   3.77644477297681     -3.73054391764949     -1.51576784893138
  H   3.06870395235716     -4.65436576377490     -0.17028220912598
  H   6.54212111068839     -2.32914476275371      0.63210000615206
  H   7.21432369820935     -3.06630077530741     -3.47890315161838
