23
Coordinates from ORCA-job 5666optt
  Br  1.12697042134860      1.35731419977720      1.68994022161559
  C   2.66380055692311      0.64269149355953      0.91978644939427
  C   2.73854915964718     -0.63064095272050      0.53164869262783
  C   1.74637917037308     -1.69715010141249      0.68080415287833
  C   1.49944753880842     -2.36398384890658     -0.44507028555009
  C   1.97022573833571     -3.78555050876734     -0.45006205175302
  O   1.39289685169499     -4.83289200983609     -0.40951350907164
  C   3.45624168887796     -3.63242375911938     -0.50936312172713
  C   4.19917054410027     -2.51198527091493     -0.33755388725078
  N   3.94564036508278     -1.16313460497756     -0.03255432044517
  C   4.99086614478217     -0.27042776362660     -0.17221274118717
  C   6.23927788582389     -0.33460808170115     -0.65242839664468
  C   6.81153155055023      1.02416035745069     -0.46748205155318
  N   7.96022238692732      1.46044502850319     -0.75593168729051
  N   5.83258545979339      1.87801543616890      0.12853081079991
  C   4.82096937434633      1.13624459219126      0.28219866863723
  O   3.66338984165868      1.56485698683546      0.81141917762999
  H   1.68203491435070     -2.18777351107986      1.64787436738458
  H   1.67201123881788     -1.85434200430621     -1.39026089867713
  H   4.01168780869174     -4.53493346793246     -0.73380164352166
  H   5.26620493628693     -2.64693877643917     -0.46194571916756
  H   6.76688377194037     -1.15771691394420     -1.10515174228612
  H   8.52801265083822      0.72177348119832     -1.16987048484188
