23
Coordinates from ORCA-job 5667optt
  Br  1.09532460735613      1.35182410517629     -1.61245163476969
  C   2.67749138356274      0.74168347666785     -0.80706149611392
  C   2.77817384233546     -0.57144633870507     -0.51330300425133
  C   1.81774139963073     -1.64330924009475     -0.80433072661171
  C   1.50185754545687     -2.40632580477476      0.23691577826946
  C   1.98385640544464     -3.81849464837156      0.12424790334757
  O   1.41770277136541     -4.85165051501752     -0.08409343466999
  C   3.46147243256527     -3.66836023350038      0.30352436267943
  C   4.19747532929653     -2.53311510495612      0.27806199598875
  N   3.93578792033942     -1.16047040962904      0.06706002821938
  C   4.97286273303355     -0.27565245436697      0.31445276562881
  N   6.15719222124311     -0.55483330902977      0.83562703905623
  N   6.73876726623940      0.63201593466781      0.85684352362479
  N   6.05016518039816      1.64453084436446      0.40760332455192
  C   4.89522540289477      1.09513890440009      0.04408037376901
  C   3.72471170357658      1.74227858149223     -0.54164921564369
  N   3.57688306274018      2.97455378024028     -0.80396355747339
  H   1.83060014797250     -2.04756033683434     -1.81310529113963
  H   1.61456622824200     -1.98872894360704      1.23458251961711
  H   4.01388304453099     -4.58315492987981      0.48120197947896
  H   5.25594908248309     -2.65547402606507      0.47161509542488
  H   7.67623596162738      0.74537300029030      1.20896164157931
  H   4.41507432766504      3.49517766753290     -0.54581997056225
