25
Coordinates from ORCA-job 5670optt
  Br  1.18931292741642      0.08729660549974      0.52444813334068
  C   3.02812367434807     -0.22437572330394      0.30703593220833
  C   3.50328661305234     -1.37403023128102     -0.22123288221614
  C   2.65012847981945     -2.47482196598343     -0.65977926656946
  C   3.03389790858749     -3.67517580762579     -1.10422666947625
  C   4.43618199800789     -4.16839909718852     -1.34314115655581
  O   5.01035670200054     -3.63367897356766     -2.53328625893895
  C   4.92064490062261     -2.24384015509877     -2.71318984848822
  C   5.58245739648239     -1.42696522628554     -1.62044094926672
  N   4.92097652311330     -1.56688057769102     -0.29891405029697
  S   5.73058948992866     -0.89505178430030      0.95304256274757
  O   7.11586164905280     -0.89123125710248      0.66962898012795
  O   5.20335144137884     -1.39695825063938      2.16716683081003
  O   5.25832636100299      0.63599546537299      0.80145696186993
  C   3.88417641764359      0.88001337990901      0.80054160001779
  N   3.43999417664121      1.99097259904218      1.16223569992866
  H   1.58985424133506     -2.27658237861218     -0.59491118723918
  H   2.23746694743953     -4.35988977544976     -1.37343497899636
  H   4.42062138224876     -5.24403843441852     -1.50433802792766
  H   5.07469398706108     -3.96139517961499     -0.48427484946526
  H   3.88483008410787     -1.92674250627675     -2.86323916683752
  H   5.46199516772373     -2.03279843644164     -3.63550409889715
  H   5.58425563100803     -0.37287834202713     -1.91993798749981
  H   6.61022011742810     -1.75651011882945     -1.48957778321293
  H   4.19039578254913      2.60396617191440      1.47687246083346
