22
Coordinates from ORCA-job 5674optt
  Br  2.94486114828960     -1.15417569739025      2.30656174076936
  C   3.76602682059564      0.04490378715318      0.97734161983111
  C   2.87459505684949      1.02722857441442      0.43401495097433
  C   1.57840865757541      1.33714201141941      0.93669544889746
  C   0.74697559992314      2.13100815208522      0.24544733219133
  C   -0.10895529451559      3.06917402777428      0.96951143073293
  O   -0.99210624185486      2.82819676716918      1.75849005497155
  C   0.38658141547884      4.44633495752662      0.74981123397828
  C   1.46647807115662      4.86740866749214      0.07234804058205
  N   2.47780084645091      4.32120789907020     -0.74534194662825
  C   3.29327867917060      3.23206415395910     -1.00959303287121
  C   4.23348294854357      3.61262505830552     -2.02774721356195
  N   4.97785593688210      3.95507666337710     -2.83333150030283
  C   3.42341331263240      1.90812160251483     -0.55688039453740
  N   4.36100825057094      1.24665129085350     -1.36549857886939
  N   5.05181282680079      0.66162977373287     -1.97926098153701
  O   4.92166484067230     -0.12429161586684      0.70770588520050
  H   1.34023200959453      1.06848647797589      1.95917930496757
  H   0.96905565915612      2.39811367895580     -0.78007889939538
  H   -0.15325212498023      5.22266378478699      1.27972678341359
  H   1.60299352736676      5.94284267369077      0.06054897120615
  H   2.82878805364087      5.08658731100001     -1.30265025001278
