28
Coordinates from ORCA-job 5676optt
  Br  3.72957760782273     -1.15477138431519     -2.14969371616870
  C   2.93525666659080      0.45182730489755     -1.44053029195489
  C   3.70486632476387      1.55508589867030     -1.10971417361367
  C   3.21314227594993      2.98868664963196     -1.02552752994469
  C   1.81289958129736      3.03933651745240     -0.44054273982121
  C   1.15634544230309      4.36764300618616     -0.13974668803394
  O   1.75000459353216      5.41236132594414     -0.18572619523304
  C   -0.33977964621217      4.33367217456301      0.20186716820623
  C   -0.93469319355007      3.13046253954160      0.96705134906294
  N   -0.77535325692776      1.93617617314468      0.15745479899403
  C   0.03572688054370      1.06844977058138      0.55974812657348
  N   0.64471104731376      0.20342271813309     -0.37069335188384
  C   2.02294825412761      0.12350887031049     -0.30298419095266
  N   2.63408998686989     -0.17270214059647      0.78564931363147
  C   4.03192029405404     -0.12866598863643      0.88202464246667
  N   4.72660908271767     -0.80647081663393      1.67892900611716
  S   5.03945458211298      1.05965772669103     -0.12476765468831
  H   3.20823153258090      3.41366837495775     -2.03247054299047
  H   3.90847821500398      3.57439376224928     -0.42725488105024
  H   1.82896280920564      2.52024202139673      0.52232838509254
  H   1.12936216881096      2.49146178793652     -1.08538403713058
  H   -0.55746109027601      5.25683220740972      0.73883867992210
  H   -0.85374918350726      4.39134605736307     -0.76366746665280
  H   -1.99412769236490      3.33652232946867      1.12146930256942
  H   -0.46174593219243      3.02838066557742      1.95243911095901
  H   0.48159164693260      1.01602744658466      1.55523279746785
  H   0.30481189324567      0.37101628647155     -1.31021697466480
  H   4.12991910925126     -1.38357128498117      2.27188775372095
