22
Coordinates from ORCA-job 5678optt
  Br  1.17365313608583     -0.26120515438753     -0.12339763978221
  C   3.03531617053014     -0.05121938212848      0.08128238332480
  C   3.58291571063102      1.21295753457037      0.28488777250386
  C   4.97424774051442      1.28581018270653      0.33532845724745
  C   5.68726150116351      2.59899563185399      0.50821601261944
  C   5.34573536090175      3.64342091671931     -0.54860796418472
  O   4.09897864019687      4.30220676209203     -0.32136089953231
  C   2.92472301233963      3.58152287413833     -0.58100547809251
  C   1.80312899198392      4.52821363875446     -0.46317790783626
  N   0.92728983600455      5.25896465856763     -0.39211407947849
  C   2.91930389717958      2.98762369744466     -1.94062741098904
  N   2.95468641841537      2.48776006355190     -2.96976638246056
  C   2.74516082242049      2.43701559150604      0.48429537822875
  O   2.02198965228879      2.59461337095952      1.41551181709981
  N   5.72393130974621      0.18914862095891      0.24280263445591
  C   5.08757962586089     -0.96180072980199      0.08475883623555
  N   3.77320359492320     -1.13334930351197     -0.01543857755100
  H   6.75624127415008      2.39422155250810      0.46875357241157
  H   5.46230385744614      3.01583102045956      1.49452095302912
  H   5.36539853617211      3.21344691540825     -1.55445814719034
  H   6.07126584684977      4.45203183423090     -0.50580976345324
  H   5.69668506419565     -1.85621029660053      0.02640643339443
