24
Coordinates from ORCA-job 5679optt
  Br  3.34435953689652     -0.47612464370039     -2.31593415214015
  C   3.07589975219012      0.48982040884190     -0.73482586891417
  C   2.85506969087224      1.81177343991176     -0.70921165617965
  C   2.36570758365206      2.74179740094959     -1.75090309654033
  C   1.18019366090822      2.50564993061700     -2.30915388079828
  C   0.18828609807800      3.64391633357638     -2.41372239179905
  O   -0.16383461483450      4.18754778692753     -3.42680701297380
  C   -0.26867349602419      4.09399942389193     -1.05782750346098
  C   0.01626726648528      3.35603955588375      0.02285056482633
  N   -0.13330927020913      3.70424300954368      1.35682103107320
  C   0.56380239648020      3.19551856637840      2.42522939448608
  N   1.48686819613752      2.31667144526264      2.52431116804312
  C   2.15698570600589      1.78509056864108      1.44867256081153
  O   2.25665073371746      0.44770592915914      1.51222605687111
  C   2.97811226383347     -0.24589779548183      0.52518695491032
  N   3.37506579449914     -1.41408869724463      0.73524891828195
  N   2.62592132998341      2.49119394512885      0.49311435561399
  H   2.70601534906358      3.76357420879122     -1.62548183128262
  H   0.78293267580171      1.49526001349328     -2.35958195800243
  H   -0.74242036203308      5.06773899924889     -1.00413674675492
  H   0.41289238572296      2.36651623424915     -0.10666973789113
  H   -0.70156238135620      4.51129866875188      1.56833265685990
  H   0.21942793993414      3.63460717768135      3.35872030387295
  H   3.14034176419517     -1.72585191050259      1.67554187108702
