28
Coordinates from ORCA-job 5683optt
  Br  2.67805722898263      0.54976202674492     -3.50747458172603
  C   3.15084908450549      0.72087086461297     -1.68309597538181
  C   3.64952488681080      1.88787349349613     -1.19419685723913
  C   3.39963209071465      3.24720476087455     -1.77821018715374
  C   2.32788650176782      3.94946190106474     -0.88632858999155
  C   1.18521709763157      3.02012868513427     -0.47879815344921
  O   0.56053740811827      2.40012861536170     -1.30595443687470
  C   0.86543764908986      2.87949614255306      1.00782552247645
  C   -0.07806646144166      1.71449218068607      1.35323005008030
  N   0.45567450060906      0.44408538500002      0.85261645110133
  C   1.56072931403846     -0.09422288141682      1.47689982537561
  O   1.68204537237938     -0.22317842831160      2.66655888557282
  C   2.73724716989002     -0.08445477844084      0.50311277203245
  N   3.61635594608663      0.85452696444699      0.96317321108067
  C   4.09715426265133      1.91130821021946      0.19681340166426
  O   4.72339578770347      2.81423452127369      0.71817857718588
  C   2.66777931141374     -0.31851500824757     -0.82882838587533
  H   3.03523809405369      3.15768657042672     -2.79749691809308
  H   4.29741087244681      3.86444608462091     -1.77350553150883
  H   1.88827634100082      4.77639367414906     -1.44889499924129
  H   2.80787123695325      4.35819244945587      0.00167370714042
  H   1.80878874737655      2.79169063164840      1.55574754984815
  H   0.43106288827645      3.83089628072220      1.33606573355996
  H   -0.20608938755582      1.64071692329127      2.43087964140427
  H   -1.05450737707605      1.86643885037259      0.89695922063688
  H   0.53280830497036      0.48386502018918     -0.15351291140889
  H   3.68416419999598      0.98374849731493      1.96735786025400
  H   1.98451892860641     -1.05227763724293     -1.23079488146987
