27
Coordinates from ORCA-job 5686optt
  Br  1.92060280407205     -1.81116133072363     -1.32969455920287
  C   2.91881046893662     -0.34896417299988     -0.62416307067654
  C   2.27635632123897      0.85717432085348     -0.31600103956707
  C   0.80286639160732      1.11533208305485     -0.47601823718719
  C   0.11078401665403      1.60960690240624      0.81281008449787
  C   -0.89470077805184      2.72909987153112      0.55753000846723
  O   -0.41715285030820      3.79393166710574     -0.25113224987228
  C   0.72112634689460      4.48702115649047      0.20802882809311
  C   1.97403649803928      3.83931672306941     -0.35322338976099
  N   2.41799728818243      3.89694437406553     -1.52166130346814
  O   2.60075068051019      3.05008170006751      0.58016275761581
  C   3.12742231509041      1.85223921938148      0.17208089299096
  C   4.47930247790107      1.63194471165857      0.35496066575676
  C   4.96196845905750      0.37765016847827      0.02205457482800
  N   4.19735459632252     -0.59619841807876     -0.46539714800164
  C   6.36418339259811      0.08167516112862      0.20548739326561
  N   7.48121058620267     -0.11372962866101      0.37032290423895
  H   0.31814661426272      0.21183981571893     -0.83305984923844
  H   0.67313131982690      1.86159613222319     -1.26344140587518
  H   0.84427121480251      1.94328788914731      1.54422699437019
  H   -0.42763428754829      0.78511762243130      1.28340428855450
  H   -1.24769006523774      3.12788601831158      1.51547236652719
  H   -1.75772885537199      2.34835483305906      0.01083505677077
  H   0.64588471032691      5.50455717361306     -0.17532523568353
  H   0.76659784617066      4.51511008963546      1.30071490369575
  H   1.84998432242861      4.51219375114155     -2.09931419001189
  H   5.12211816539196      2.41009216589053      0.73933995887304
