25
Coordinates from ORCA-job 5688optt
  Br  1.08914325071178      0.07671927897952      0.21667944798815
  C   2.95089148877314     -0.08112391388393      0.07543208361905
  C   3.58688268390620     -1.28742662949882      0.07035113331385
  C   2.80807627961843     -2.57620520439692      0.13649417926970
  C   3.57809760056156     -3.75946890687236     -0.44731929680146
  C   4.91139510721710     -3.87427963508133      0.22732041834181
  O   5.31608138894521     -4.86256166414715      0.77691968755292
  C   5.78892782392294     -2.62919118632282      0.11264170094126
  C   6.62553183361623     -2.90598587543002     -1.14514546709842
  O   6.35522113545382     -2.47064360908018     -2.22436795704530
  C   5.02614183763655     -1.32987700544547      0.03312189511727
  C   5.69833630767283     -0.14585741083986     -0.04351223327349
  N   5.02209064458673      1.03794545045111     -0.07651926176803
  C   3.65033308241774      1.19881776162802     -0.01625809951557
  O   3.14794689115686      2.29983676766590     -0.04155655331295
  C   7.17336344392877      0.00926934506184     -0.06146049456252
  O   7.96962420626836     -0.88811872946577     -0.04090782532759
  H   1.86416128159707     -2.45467894586900     -0.39093112882088
  H   2.54974853207427     -2.77552689594109      1.18164147322933
  H   3.75978063395025     -3.57978182142531     -1.51250197715261
  H   3.03143090785079     -4.69246649725227     -0.33064075758305
  H   6.47827091439458     -2.64132010778079      0.95724009249366
  H   7.46375357127307     -3.60268091698186     -0.98114449457280
  H   5.53589779276809      1.90803932780478     -0.14457401891382
  H   7.51387135969755      1.06256702412381     -0.08800254611850
