30
Coordinates from ORCA-job 5695optt
  Br  1.60156486339340      1.79776254507363      2.94485496614463
  C   0.54303050904675      1.95996989729373      1.36708909138766
  C   1.08861066316592      2.33781999598163      0.18557101991404
  C   2.33662576309606      3.16105492802899      0.08064551114248
  C   1.91317479050089      4.65030153088089     -0.05407120993658
  C   0.79759951656398      5.10493691091622      0.88977051381974
  O   -0.45853963698992      4.75545954751624      0.32789541437400
  C   -1.57762760911741      4.96506398383687      1.14411964117435
  C   -2.82092836721952      4.28909156477200      0.54374962097446
  O   -2.85973436230422      2.84400780265958      0.70858810774508
  C   -1.63072775366684      2.29306066373384      0.54534551649021
  N   -1.14317579042716      2.27353698168691     -0.71509222580263
  C   0.22129999288927      2.32585478883730     -1.00020494009291
  N   0.55468094672402      2.42904051201878     -2.22811985305452
  C   -0.86540208303946      1.92133259831398      1.59677965727959
  C   -3.00783122586051      4.64869548968743     -0.86580409696919
  C   -3.16483688667669      4.92933356212168     -2.01823966045051
  H   2.95717975973012      2.88878109623740     -0.77489593434076
  H   2.94755552939986      3.03028380884696      0.97071775015704
  H   1.56996648631884      4.84197812610196     -1.07286961508489
  H   2.79015200110395      5.27734646769334      0.11592101696033
  H   0.84277239089946      6.19223049470819      1.02231931388004
  H   0.90207547673050      4.63801484440815      1.87844424225895
  H   -1.80404423973298      6.03527698685638      1.23271839414301
  H   -1.41362849564743      4.55783230233828      2.14954535596118
  H   -3.68500438591578      4.63284801238568      1.11335860537889
  H   -1.74497061128061      2.57926909109528     -1.46911037300306
  H   1.56281253628328      2.46277578979894     -2.33253216631657
  H   -1.27389152424587      1.89684213006925      2.59334660994783
  H   -3.29975825372190      5.17619754610045     -3.04484027408191
