25
Coordinates from ORCA-job 5702optt
  Br  2.64408168494643      0.77012386845380      3.36816474982634
  C   3.59164548657698      0.84871109589539      1.75649796621777
  C   4.12996259979720      1.95029393145929      1.22565937965456
  C   3.40931026200956      3.29447295214294      1.29791726235203
  C   2.21347981800092      2.89224594067901      0.39616987842184
  C   0.98632188715585      3.57824147975436     -0.13260008144951
  O   0.61093002845844      4.70147746564495      0.00768304886864
  C   0.18218690321530      2.55337303414137     -1.01101523020364
  C   0.51431156231005      1.09949288722837     -0.71070366474219
  O   0.01017091303340      0.45938059844152      0.16502441405829
  O   1.50841104914025      0.61965027575098     -1.50519121799059
  C   2.22194286817401     -0.56112886526280     -1.09536831972039
  C   3.43681054994446     -0.05315581177324     -0.33394466379792
  O   3.40811604602741     -0.29055259961835      1.01657485682067
  N   4.24357813933433      0.75451250122225     -0.86208815607408
  C   4.92167030505626      1.66078579006194     -0.01252673562455
  O   5.93801169160957      2.21329768479979     -0.31484553590795
  H   4.01519801195363      4.09673482118244      0.88447603255576
  H   3.09700629649220      3.55402830422412      2.30645039625455
  H   1.76444742647842      2.03529043902250      0.90318882493046
  H   2.63314006723062      2.48298073398391     -0.52577661263726
  H   -0.87647350196571      2.71925968456432     -0.82550319873123
  H   0.41161740430694      2.79015391005916     -2.05106533295503
  H   2.52053828551222     -1.06798261544933     -2.00789009440984
  H   1.59658421520123     -1.19368750660871     -0.47028796571677
