28
Coordinates from ORCA-job 5704optt
  Br  1.11914490086786     -0.49254646865328     -0.77796057512208
  C   2.91068317287374     -0.21034690913111     -0.30062514310632
  C   3.36123002741469      1.01339914032707      0.03718806262246
  C   2.82642044733213      2.43071047440553      0.04282498940652
  C   2.05751619457801      2.70933976853328      1.33085451452619
  C   1.42836305228407      4.07610318495692      1.35773401314237
  O   1.52234514655685      4.87575332739377      0.46798076517601
  C   4.12930466524876      3.30082472189839     -0.07269359197699
  N   5.19814718202167      2.42792521881844      0.44946568175351
  C   6.54730815830558      2.38172565932442      0.06642676678163
  N   7.32626695200104      3.31967139974679     -0.25256469469348
  C   6.97735574348820      0.88877230974415      0.06238645482543
  C   5.64657543691292      0.18305231718383      0.13045403244498
  N   5.19252723234879     -1.06772812522204     -0.20713583116474
  C   3.82412796084802     -1.37873087059796     -0.34494412452450
  N   3.36972361699179     -2.55528134031484     -0.53555808494996
  C   4.72619835439175      1.11804801496355      0.34240443110737
  H   2.16934041325107      2.61645934884026     -0.80658740256032
  H   2.70837710981040      2.61472659374254      2.20829591355904
  H   1.25902284595627      1.97219186222980      1.47017331609285
  H   0.84940729963655      4.31715973873710      2.26907784767842
  H   4.04729941419438      4.22437385220551      0.49527752642380
  H   4.32977504827210      3.55156186374710     -1.11884340724478
  H   6.87281810700741      4.22998490730840     -0.18673206547934
  H   7.62571340775934      0.69436508582379      0.91959956335836
  H   7.54635001002851      0.67220686088179     -0.84200219035658
  H   5.83520200487311     -1.83600505076635     -0.31637209275064
  H   4.10445609474495     -3.25771688612688     -0.56412467496920
