26
Coordinates from ORCA-job 5707optt
  Br  1.12680381788673      0.08402281963893     -0.01194137697778
  C   3.00891338368227      0.01367431618235     -0.00406651676017
  C   3.66166495526528     -1.16999802457914      0.03448794002151
  C   3.27520791935118     -2.53563272950616      0.09209218020830
  C   4.43495580600900     -3.27269678521902      0.12162395501668
  C   5.57253023508147     -2.41028364236200      0.08564187628451
  O   6.85476727245165     -2.88097701269836      0.15084165828826
  C   7.80233831037092     -2.26904205674530     -0.61724799094529
  N   9.02557943478333     -2.51415390985628     -0.53217966874907
  C   5.13407085404288     -1.11325957119620      0.03672993929938
  N   5.80667361203660      0.06976725316818      0.00543173475704
  C   5.10265858245495      1.13755042039472     -0.02767331677225
  N   3.71243974326175      1.18743914584642     -0.04132355870947
  C   3.08410580047755      2.50155324179176      0.01674961409027
  C   2.74629605162564      2.88821478875426      1.46217636304522
  C   2.16616679809772      4.22703819167425      1.50932622696275
  N   1.71796407305634      5.28072745891438      1.50259899360560
  H   2.26447319255368     -2.90874584394489      0.10896534976328
  H   4.50546101740955     -4.34929547732910      0.17075677369292
  H   7.40196305935132     -1.55325737349455     -1.33096234132305
  H   9.21329957658186     -3.20056330880653      0.19923911419190
  H   5.58219372454989      2.10861378320762     -0.05616765692541
  H   2.18877051559310      2.50891375758650     -0.59937411932066
  H   3.78342532583717      3.21980178490009     -0.40645801146586
  H   3.64912545327022      2.87006549234266      2.07538865725850
  H   2.03615148491787      2.17752328133539      1.88734418146289
