24
Coordinates from ORCA-job 5717optt
  Br  3.25918200395018     -0.40184208518716      2.72703964528294
  C   3.45017915073512      0.24362913452806      0.97837778665273
  C   2.66453030944120      1.22759394118845      0.48468562565371
  C   1.62420761105587      1.85507732466809      1.31818434762349
  C   0.40018427551563      2.13043487853295      0.87726332684107
  C   -0.34950764953509      3.25414066332989      1.50132453528451
  O   -0.58144550611183      3.34473489476021      2.67855256340218
  C   -0.75020666233137      4.45613279091288      0.63139359740217
  N   -0.39647144288107      4.78183720056372     -0.54069835751732
  C   0.47246728834179      3.95191171397799     -1.27017845961406
  C   1.70158716297127      3.64835627966279     -0.88696937504508
  O   2.41262533909945      2.67604321079436     -1.55033076932676
  C   3.01520706670761      1.65354315903436     -0.87700102410343
  C   3.98585299050060      1.01229958754448     -1.55922363442902
  C   4.71951969422087     -0.09478079057123     -0.99931400453438
  N   5.61109430350010     -0.82987022075072     -1.49718632015111
  O   4.41457885848809     -0.38487646896484      0.33376639590349
  H   1.93778399199420      2.25909135582440      2.27679175474218
  H   0.05946286332382      1.76049579197406     -0.08068829725418
  H   -1.41504163061232      5.12636850727321      1.17539418359325
  H   0.05469710468751      3.51802288407741     -2.17220879891091
  H   2.18384063032478      4.09939152923144     -0.02885836636517
  H   4.24098074022076      1.33858036258650     -2.55652012563025
  H   5.79469150639281     -0.56831564499131     -2.46059622950007
