28
Coordinates from ORCA-job 5719optt
  Br  3.71330178951133     -1.47776515214015     -2.16607694176853
  C   3.39286767777208     -0.23209613588127     -0.80004169394254
  C   2.35375380040248      0.63294512684691     -0.81000983828694
  C   1.33149648372549      0.79417864022816     -1.90905323909120
  C   0.33800056810354      1.90248661203510     -1.55410416897629
  C   1.05376014917465      3.22497244371075     -1.32931925516135
  O   1.96892777845026      3.56008062929585     -2.03959254148305
  C   0.63194150693145      4.15954708610476     -0.18489665974311
  N   1.70501658815535      4.24219107645467      0.80289203392155
  C   1.65079007772963      3.43094961277987      1.93713313641676
  N   0.64281237824945      3.26354067709610      2.68691334856938
  C   2.91468973995568      2.65837626476380      2.23819353517581
  C   3.10012162699752      1.59086680547887      1.19479725366047
  N   2.25030203889979      1.50296480117824      0.23608441503924
  C   4.26293764540596      0.69664960681837      1.27794978460292
  O   5.11265964264219      0.71089997095214      2.14023662708793
  N   4.29360403939269     -0.21004380091945      0.22495508962645
  H   0.80052099992948     -0.14398824647862     -2.08126803121925
  H   1.84444404995102      1.04958579768336     -2.83865522009646
  H   -0.23693650747628      1.64079763395037     -0.66658084967484
  H   -0.36276388967996      2.04019266166870     -2.38244165915272
  H   -0.27777480502313      3.81217566191241      0.29972317498358
  H   0.44517993027277      5.14372320760129     -0.61852620364679
  H   2.60684358709612      4.23234690193757      0.34384577032005
  H   -0.14741460289212      3.83431400117732      2.38952030519614
  H   2.84217449327687      2.21081434725634      3.22897630516094
  H   3.80007649415048      3.30325631967228      2.24390988856535
  H   5.06666671889518     -0.86296255118376      0.22743563391650
