24
Coordinates from ORCA-job 5722optt
  Br  1.34130875997199      0.18805316975242     -0.38280914906660
  C   3.12049675683070     -0.14678760272356      0.00639399707389
  C   3.70114187182062     -1.34739463327296     -0.00343503676342
  C   3.27683297411914     -2.68872878549653     -0.27165040698553
  C   4.34499889255103     -3.50297028412147     -0.12315338752909
  C   4.30831752373390     -4.97733545359151     -0.34290788614326
  O   3.36068994524419     -5.48417732477964     -0.88876480911762
  C   5.47827643682692     -5.79797231211450      0.17748936618316
  N   5.75672157667219     -5.53879411608638      1.56997417985735
  C   4.90363535566262     -5.95151128669089      2.55996892352578
  N   4.89968243998943     -5.62967332462673      3.78641694567671
  C   5.55109732146727     -2.70608337523809      0.24595903020998
  O   6.69191258135918     -3.05829372389233      0.44151882949258
  N   5.07513500194981     -1.41215013842997      0.30892973293299
  N   5.80951949948540     -0.29967153920683      0.58164048427361
  C   5.17813266571392      0.78923575920686      0.57098358012661
  O   3.83426689401068      0.96901977265459      0.31170944384364
  H   2.27469905147612     -2.98622303722521     -0.53973390664564
  H   6.36770895074193     -5.55058573664237     -0.40328270603627
  H   5.23393197362713     -6.84826008118710      0.01723953729400
  H   6.39562683961545     -4.77909664792684      1.75969385007713
  H   4.15977179018171     -6.66843504364218      2.20595773740668
  H   5.63600299497380     -4.95657228310858      4.00298100663776
  H   5.67209190197476      1.72640802838984      0.77488064367555
