25
Coordinates from ORCA-job 5723optt
  Br  3.05542423550457      0.80395278709745     -2.65851602566225
  C   3.03604748851075      0.10528398048306     -0.90929284858541
  C   3.08342958500459     -1.26190447058416     -0.69686145371134
  C   2.75570504322762     -2.42263090369850     -1.58506659341357
  C   1.42752808250637     -2.61448617939197     -1.44575520042637
  C   1.00778767936817     -3.71740976946463     -0.57820778101139
  O   1.54597228394687     -4.94133449645219     -0.81797502519109
  C   1.00677579171159     -6.02456681108990     -0.16727687892871
  N   1.52696457494383     -7.15843002228752     -0.18740123467212
  C   0.66762384939810     -3.24440507186345      0.64328648980421
  N   0.94659537891769     -3.89737172236295      1.83457055043529
  C   1.57821328883793     -3.36214448502113      2.78740941132332
  S   2.37486090952890     -1.78134241461679      3.11391022233454
  C   2.77961642671115     -0.98491667691223      1.56984592508044
  C   2.69717004246805      0.40578115060578      1.45137212369222
  C   2.88343814294248      0.94755495972511      0.19227162398992
  N   3.06526353998310     -1.75505817330443      0.55148956764283
  H   3.42181004046236     -3.27336697734033     -1.51529357825931
  H   0.80611091414067     -1.73098929257876     -1.33604414786392
  H   0.06881190245279     -5.81584405639469      0.33827718134672
  H   2.40872066313310     -7.15517864022793     -0.70097126295559
  H   0.30673081852481     -2.22316269206922      0.70881623480978
  H   1.68981203325736     -3.93893016011527      3.70401547282419
  H   2.45626049405384      1.02948540961220      2.30091730490338
  H   2.83632679046330      2.01841472825249      0.04447992249424
