24
Coordinates from ORCA-job 5732optt
  Br  3.28487854953468     -1.05565707044980     -1.85320443316042
  C   3.19078337396771      0.17885398532404     -0.42591160183433
  C   3.05258249651397      1.50807979256409     -0.61231871862229
  C   2.76394905765944      2.19796847566010     -1.91391266868555
  C   1.25561985723075      2.53567558552571     -2.01608480519283
  C   0.83335666577011      3.57151354487717     -0.98831556939775
  O   0.89275940527839      4.74825774905446     -1.21707655767679
  C   0.26472027822617      3.10178616565414      0.36279298518332
  N   0.58988277823641      4.01530973181314      1.43108733809536
  C   1.51584224933303      3.89534119155793      2.42324113182044
  O   1.84643119310733      4.77155561718538      3.15381519463769
  O   1.95570476457939      2.59041269920352      2.70611101804171
  C   2.56238290327875      1.78360414170355      1.82656434599161
  N   2.67566937331145      0.55543587572706      2.14325616292710
  S   3.21918252815139     -0.59629459163999      1.10934677836738
  C   3.05252909994409      2.39076001845886      0.55541663686345
  O   3.29145934957305      3.57648951906903      0.49494481784048
  H   3.04221063193567      1.56777470360090     -2.75503685559512
  H   3.33876501542943      3.12292057680946     -1.96412642925388
  H   0.67418228614248      1.61771221437495     -1.89626588536306
  H   1.05769314314976      2.95874983776054     -3.00017243002475
  H   0.55034561385992      2.08232977609724      0.60748689200059
  H   -0.82291012225730      3.07476762847841      0.22852912190160
  H   0.40797950804391      4.98765283159007      1.21883353113603
