22
Coordinates from ORCA-job 5738optt
  Br  1.54359459870078     -0.02022640708597      1.08439110566494
  C   3.24011352944468     -0.00355385250966      0.26116667342031
  C   3.87346295450683      1.06231145829990     -0.27565010290226
  C   5.25566890957536      0.81876820741928     -0.64470080806732
  C   5.90188431935276      1.77107343540228     -1.34168380855184
  C   6.81527286990820      2.66078305855010     -0.55852052727782
  O   7.96421628039337      2.92542596317628     -0.62412038951091
  C   5.83814481608297      3.25881108934934      0.53675571239223
  N   6.39463892278010      3.57427274228832      1.62389866997162
  N   4.46592036830009      3.38534728768296      0.28302238698738
  C   3.59519329756047      2.51532830199727     -0.05659210585781
  N   2.28581287477209      2.90847597158059     -0.26342600467640
  C   1.76884068481292      4.16766733736883     -0.00520252372045
  O   0.61611169170955      4.42866455093506     -0.20983750560728
  N   5.96116273567895     -0.10780105516216      0.16348338318605
  N   5.34870524407581     -1.07535510881963      0.61148469105378
  N   3.96586711085139     -1.14959440532369      0.36955026036323
  H   5.25390506659064      2.37556502651068     -1.97126243951451
  H   5.69949712364082      3.87449839513926      2.30910488378579
  H   1.62250596659329      2.23174681033040     -0.61293629472154
  H   2.50897743866402      4.86768048533776      0.39555415409340
  H   3.56250319600484     -1.95488929246721      0.82352058948940
