22
Coordinates from ORCA-job 5740optt
  Br  3.07530196388146     -1.12192222420827      2.82956273638638
  C   3.69947066279783     -0.31244702208913      1.26253821347246
  C   3.04807942272524      0.68545672084180      0.65943558825119
  C   1.85054165226232      1.32565675447417      1.19803714840920
  C   0.91214846653425      1.68795471143516      0.32771958345624
  C   0.37296611363948      3.04302028305511      0.46234965716682
  O   -0.47486107071348      3.50423060789575      1.16545380690341
  C   1.22173626068970      3.97281606203014     -0.42827206349919
  N   0.92002642923207      5.18168256293945     -0.60424998285353
  N   2.35150430648692      3.49764060138112     -1.14378932022941
  C   3.25166904993186      2.46610404411667     -1.20220537475223
  C   3.59058341374174      1.30389413422935     -0.55530510925600
  C   4.75888102167180      0.64129104645905     -1.16308482515253
  O   5.24818824176344      0.90231774472451     -2.22978082425722
  C   5.45112593262756     -0.47275446072926     -0.34182461111961
  O   6.46179517953679     -0.98472931487749     -0.67347950238917
  O   4.86208054612982     -0.85826988923340      0.84027082316653
  H   1.86609392721684      1.71749593335584      2.21049153112815
  H   0.97225920152627      1.31849886634896     -0.69085646062974
  H   0.07553078067499      5.40045207977435     -0.07363034842322
  H   2.60325042224520      4.23439352193060     -1.79135162090404
  H   3.92462807539785      2.64521723614549     -2.03502904487450
