26
Coordinates from ORCA-job 5742optt
  Br  1.23763371503697      0.06673078025890     -1.00380561328098
  C   3.01172783472377     -0.06992913244605     -0.39644991189909
  C   3.62427133894385     -1.24402258318576     -0.15036453029615
  C   3.12947862658995     -2.66740194990482     -0.17778800486669
  C   2.39316528412215     -3.07894037177296      1.10721366115435
  C   1.07578921826135     -2.37523361119378      1.34975423691163
  O   0.49194206071622     -2.98025065300901      2.49682544141585
  C   -0.62838201535971     -2.37914340773609      2.96770262110626
  N   -1.28119603406575     -2.76765984711023      3.96168628310428
  N   4.39611904768406     -3.36711383286191     -0.27971179019680
  C   5.47357691985745     -2.60093974171940      0.08969859554244
  O   6.59684820545775     -2.94005107138913      0.27359174481496
  N   4.95315687468077     -1.25631531340876      0.15986219258901
  C   5.72527010987706     -0.07504168014312      0.37691852453309
  O   6.84379824421374     -0.12880819098448      0.78590923129057
  N   5.06034362724135      1.11260144131287      0.06665996743890
  C   3.82508738721964      1.10681950665461     -0.28778975435820
  H   2.50127177749718     -2.83046570675041     -1.05651737605259
  H   3.05718534918774     -2.90896505555107      1.95812223557206
  H   2.20640035235545     -4.15396890715806      1.05025256008865
  H   0.40554873531627     -2.48140541226364      0.49153038867618
  H   1.23041556761787     -1.30907637491603      1.53360901046411
  H   -0.93593242736244     -1.49632167883347      2.40488268955229
  H   -0.86240836597775     -3.60146936338560      4.37550625989913
  H   4.46712609988438     -4.36432166183817     -0.15627890277948
  H   3.37076246628063      2.06569381933562     -0.52801976042380
