27
Coordinates from ORCA-job 5746optt
  Br  1.16072375516055     -0.15228721125152     -0.71532186796398
  C   3.04166217682008     -0.03520439810822     -0.45785573198429
  C   3.64627328403485      1.18973907296211     -0.21890629123716
  C   5.01102360005532      1.19499624152680      0.04062408590066
  C   5.48451813063131      2.59418892954933      0.34258308005871
  C   4.35694554299643      3.46571792095049     -0.22050577786955
  O   4.58381562108371      3.70542002501512     -1.61200554508426
  C   5.46469563045535      4.65920171997958     -1.90932650427128
  O   6.08795405391851      5.30443115009723     -1.11879944254593
  C   3.08552068509064      2.58759552568334     -0.11694384881976
  C   2.33702156709399      2.85272197307173      1.20236325874178
  O   1.44719237066933      3.88086536711759      0.83407558751965
  C   1.01400320314046      3.51099686716432     -0.44579048692213
  O   2.13181557496392      2.92902221089695     -1.09346336486882
  C   5.72184378745981      0.00752920097784      0.01285211786885
  C   5.01339643568874     -1.14845160504299     -0.28135765550910
  N   3.69914581672146     -1.17212813198825     -0.50359101164493
  H   6.44917976969061      2.84120154254299     -0.09724911259410
  H   5.57319121598374      2.73676144365899      1.42264174018571
  H   4.23961657337834      4.42187553866662      0.28791265728728
  H   5.53589863394059      4.76730960525053     -2.99742184850067
  H   2.97979200525517      3.20359019040330      2.00823621000545
  H   1.79439078923734      1.95546442495677      1.51912210579955
  H   0.69821402765923      4.40001645714923     -0.98766839172845
  H   0.20967183968531      2.76944034507915     -0.38361861778768
  H   6.78665868865228     -0.02866772352514      0.20022363451644
  H   5.51683522053287     -2.10634668278392     -0.33880897855198
