24
Coordinates from ORCA-job 5750optt
  Br  8.59947193322629     -0.95553259427369      1.68074531664216
  C   6.71314655577696     -1.05166214006065      1.91232972422501
  C   5.81881229717057     -1.39061234659764      0.76057294116926
  C   5.76920721288612     -2.52350133060789     -0.14724900017060
  C   5.21126576523336     -2.44066290358134     -1.35628926261925
  C   4.67217956001329     -1.14937467453447     -1.90603081908303
  O   3.32788825085935     -0.83719001193681     -1.50286024490174
  C   3.06952901445969     -0.85281640419548     -0.15476481542598
  O   3.84012900712779      0.10314213385555      0.58838008150924
  C   5.02951903236547     -0.33025277494921      1.01478456978847
  C   5.81065160374060      0.19005325948108      2.19019266985782
  N   5.33004902338494     -0.22368592505614      3.52507983206229
  S   6.10968197685272     -1.71418048589795      3.51154262294644
  O   5.19331039785602     -2.80203528916552      3.34877168070892
  O   7.12222657440908     -1.78760160744910      4.50733647963809
  C   1.65458748723362     -0.47746925471170      0.02683063318342
  N   0.55386577742943     -0.21716000522489      0.19228643664370
  H   6.18809300504752     -3.45773607920907      0.20921731239904
  H   5.15119916436148     -3.32457874205130     -1.97853419371816
  H   4.61380344469990     -1.18363795403570     -2.99034025226661
  H   5.32138017900760     -0.31813602477314     -1.61998554826218
  H   3.24094957609337     -1.83570042775347      0.29658868474594
  H   6.24581696560285      1.18422669478814      2.16134120577584
  H   4.32723619516191     -0.24089511205959      3.67905394515188
