28
Coordinates from ORCA-job 5756optt
  Br  1.25071748290264      0.31711064231396     -0.70776334745500
  C   3.13157138130336      0.12447500081851     -0.46528533951401
  C   3.76782833750817     -1.11301606039697     -0.61846719813867
  C   2.95362283633569     -2.31589871546445     -1.09224305748905
  C   2.43863639154328     -3.23140285696337      0.05421154579318
  C   3.57114756753759     -3.94839463697713      0.73302442440187
  O   3.82686861041414     -5.11371782679597      0.58441370305604
  C   4.45437755116515     -3.09654100601091      1.65647637722020
  O   3.95556320200725     -2.55381782208595      2.60486015887741
  C   5.89112255911363     -2.98409348340746      1.23321966254802
  C   5.92599385261761     -2.45774416745718     -0.21867634307774
  C   5.14343283118968     -1.16653728856121     -0.32264397142147
  C   5.81920209371582     -0.00133026601504      0.02945868045522
  C   5.17049690301571      1.21532754275402      0.12541742905932
  C   3.80824464272836      1.27861270479210     -0.10588831624436
  C   3.58661083779187     -3.08848762990678     -2.16381243603093
  C   4.03961263481889     -3.73765813827900     -3.06187392327673
  H   2.04797702797096     -1.91103488243261     -1.54175988515203
  H   1.75637281048072     -3.97213462237945     -0.35972395757829
  H   1.92145956454446     -2.60098495297577      0.78081261698458
  H   6.35036484934266     -3.97465189341306      1.27305731864516
  H   6.40390961525708     -2.31095429739748      1.91932452294753
  H   5.55080278296688     -3.22418707769068     -0.89220035101108
  H   6.96348078428837     -2.27338418159846     -0.49688617467747
  H   6.87984331426636     -0.06277919728039      0.24342442439013
  H   5.71603040145061      2.10970240738140      0.39542687433151
  H   3.26902734785666      2.21020991606487     -0.01178668204825
  H   4.45068178586635     -4.31268721063551     -3.85711675559509
