22
Coordinates from ORCA-job 5758optt
  Br  1.19548905375717      0.22194221467773     -0.27041075590773
  C   3.00770970671932     -0.07074384823761      0.01252113801247
  C   3.63633838213578     -1.24140686950156     -0.08413998399691
  C   3.28529851453631     -2.60923986154256     -0.39216507256862
  C   4.43132160822625     -3.32899279141671     -0.31239006429712
  C   4.55157615923692     -4.80047028123498     -0.53817890916808
  O   5.09853261179827     -5.09440709739704     -1.83886511807421
  C   4.21536454198569     -5.09196736425138     -2.84108978373927
  O   3.04408665086994     -4.86891069976369     -2.72581043589680
  C   4.86029101936281     -5.41795942389987     -4.10326580335411
  C   5.35589460902112     -5.69412866034983     -5.15526247122132
  C   5.56674268770077     -2.46451703008382      0.04210954658741
  C   5.06308470684790     -1.22838651810678      0.17725449964772
  O   5.69572391240300     -0.06515534470884      0.51700503450859
  C   5.02519979481808      1.09007656112297      0.60430430270494
  O   5.53787909918735      2.11139405057892      0.89380162506976
  O   3.67164270364624      1.05971615747421      0.33950638554178
  H   2.30520971432151     -2.97203608816240     -0.65658000217180
  H   3.58107280575646     -5.28361330163747     -0.44299410109138
  H   5.25771624732133     -5.24768903203223      0.15852140821707
  H   5.79543111326162     -5.94207909407000     -6.09274981560926
  H   6.59039435708602     -2.77842567745699      0.17087837680690
