29
Coordinates from ORCA-job 5761optt
  Br  2.65743394631553     -0.65872783262079      2.95346071796326
  C   3.10798916040229      0.00863306280139      1.24000664571394
  C   3.47789256424255      1.29099194388960      1.07131817344512
  C   3.22071906404785      2.41147489113874      2.02803419624254
  C   1.72876250714665      2.81223932718774      1.89018573444732
  C   1.18655431858129      2.95496298647002      0.46742388623861
  O   0.94398885576771      1.65602387733304     -0.06955174104731
  C   0.57808501734149      1.59915365546602     -1.42723500982195
  O   0.46968315931911      0.25878401338297     -1.80680424524966
  C   1.67811759492532     -0.42888692980891     -2.14725662082390
  C   2.69893215294788     -0.21346947390292     -1.07775574160705
  O   3.41435348603673      0.91219069003988     -1.31132917050984
  C   3.87312556919695      1.70005698391981     -0.27879025413894
  N   4.55363905365634      2.73515501358282     -0.52469421417033
  C   2.70670271696814     -0.80616981195214      0.12164545247617
  C   -0.72707443097572      2.24244608434047     -1.65714431216427
  C   -1.76076652022296      2.81909763920324     -1.82637986199112
  H   3.86615092679991      3.25171974192248      1.78097176334696
  H   3.41502947924119      2.11277825968702      3.05699470315235
  H   1.57820435759677      3.76308421881689      2.40515694622109
  H   1.11018387266732      2.06800133703880      2.39748366579908
  H   1.89066880801065      3.50026903487970     -0.17316532757428
  H   0.24525040172246      3.51193760738411      0.48966933964017
  H   1.34271976673079      2.11544057609143     -2.02818235115619
  H   2.05235763659691     -0.06919825683154     -3.10924042530272
  H   1.39828835375415     -1.47636267929490     -2.22698117328027
  H   4.69677996181463      2.84892857212013     -1.52618797170962
  H   2.14033399808742     -1.70986027505248      0.28550086010445
  H   -2.69010577871938      3.31430574276734     -1.97915366424361
