26
Coordinates from ORCA-job 5763optt
  Br  1.51329496600013      0.49766926615677     -1.48872710935839
  C   3.20320263300631      0.22579199625216     -0.70337445831334
  C   3.75297124571528     -1.01322738026144     -0.58833268708946
  C   2.99225054945266     -2.24524023844832     -1.01890649031317
  C   2.09298629552627     -2.87904544844951      0.09094501871814
  C   2.85101826410253     -3.94825670434515      0.89331808378790
  O   4.12171163248829     -3.39216224603173      1.22333868545270
  C   5.08708219302334     -3.62830088583367      0.31638369579022
  O   5.33866161421498     -4.70163758028949     -0.13953850507248
  C   5.80068281842079     -2.36200535939305     -0.11316526315152
  N   5.00882568444260     -1.14487540945901     -0.00883961981786
  C   5.63676057169397     -0.03610596219208      0.49368008841912
  C   5.12128515657148      1.20224280457495      0.43095172723210
  C   3.85278244764996      1.45858990379569     -0.22357128934404
  O   3.36923467057536      2.56540732067562     -0.35733278593191
  C   1.55650165651038     -1.88225938107876      1.02301894386839
  N   1.15199271272525     -1.14656152934617      1.80227540143852
  H   3.65279926430414     -3.01984261559765     -1.41068478404321
  H   2.35166242318481     -1.95349232736032     -1.84531253438016
  H   1.24066723088946     -3.35975537024466     -0.39403264213157
  H   2.99074356745499     -4.85279866421482      0.30174612429133
  H   2.34188051281539     -4.18955899555815      1.82223149618112
  H   6.14594269314374     -2.53047853403485     -1.13517309726988
  H   6.68372573439087     -2.24357288413541      0.51356141666217
  H   6.59837670429109     -0.22366597991279      0.95115856763767
  H   5.65295675740585      2.03914220473188      0.85938201673763
