23
Coordinates from ORCA-job 5766optt
  Br  1.11577641533308      0.03888646986367      0.07566058311129
  C   2.98890392473613      0.00889491887385      0.01404339028876
  C   3.67710472074056     -1.19153517748796     -0.05053188186233
  C   3.34958107614066     -2.53621922976305     -0.09361169322384
  C   4.55551632094436     -3.25947587537649     -0.14317883026417
  C   4.44761878111755     -4.73044411245389     -0.19900477290921
  O   3.37019415265544     -5.28315542012471     -0.22386515309522
  C   5.61314038535675     -5.73241137953077     -0.22572201581045
  O   6.78846642877015     -5.49436780672566     -0.19526928307422
  C   5.67425016759711     -2.37112370900119     -0.13211571695274
  N   7.02312535303909     -2.75476923791789     -0.16635090654739
  C   8.11894674710967     -1.98126891514298     -0.18058171871730
  O   8.15801979316034     -0.75991212650123     -0.17265696713153
  C   5.13047523879169     -1.08500952360878     -0.07820078948600
  N   5.68104297958744      0.14638060838557     -0.05065365732013
  N   5.02708793660059      1.25998772669321      0.00150663043480
  C   3.69538548570159      1.20379724887951      0.03615013146599
  H   2.36600822453930     -2.97302596022955     -0.08918731601502
  H   5.22843923711854     -6.76445250402108     -0.27228393309638
  H   7.18035963601250     -3.75827994312797     -0.17500618881619
  H   9.03993694284004     -2.57726662269684     -0.20042423633813
  H   6.71023713271638      0.18892784864055     -0.08121878307314
  H   3.19238291939098      2.15784272237372      0.08350310843256
