20
Coordinates from ORCA-job 5771optt
  Br  1.21839490624868     -0.22267241361913      0.13765667849469
  C   3.05757083636627      0.02828038890876      0.07455593788087
  C   3.67041201267696      1.23823054978616      0.05013003222465
  C   5.11579371031174      1.22656298592631      0.02219454043553
  C   5.56713672860424      2.52357446395999      0.01827740186061
  C   4.41323873181870      3.34570618671295      0.04445594419847
  O   4.48698589604050      4.70932835456242     -0.00681251122550
  C   3.86263485602523      5.42928482076005      0.94973569153067
  O   3.30924000936268      4.99146795503622      1.90677405793671
  C   3.95876299434417      6.93399474765219      0.68522602585443
  O   4.53824830491861      7.40220729199658     -0.24210008955941
  C   3.24686500118906      2.59776290231652      0.05749985586745
  C   1.92940697943797      3.11617679588893      0.02991706451547
  N   0.87317282373201      3.56549321311595     -0.01130581565314
  C   5.74111978762389     -0.04567024825942      0.00780617057329
  N   5.11252679566291     -1.17067071809387      0.02378230737885
  O   3.72414243367426     -1.10954806276894      0.06043653503495
  H   6.58469712306247      2.87832387399477     -0.00136625926498
  H   3.43435211703996      7.52369255536015      1.45408872846738
  H   6.81829795185964     -0.16152564323663     -0.01995229655099
