26
Coordinates from ORCA-job 5775optt
  Br  2.18399616700331     -0.99360972135401     -2.41015613413748
  C   2.89622921392341     -0.02023796499691     -0.96869567540893
  C   3.11471034842904      1.31390300437054     -1.00815130873509
  C   2.64377432872773      2.20744173332528     -2.11910653541758
  C   1.15911146985594      2.58323098501388     -1.92163585523429
  C   0.84013876762178      3.52234932542208     -0.76748162106996
  O   0.90520072226733      2.82639823761904      0.49858562865260
  C   1.57293361350733      3.41370028850346      1.48505788211715
  O   1.99479797116756      4.53509278431146      1.48946751548878
  C   1.87956122663269      2.46002105421329      2.65636176392291
  O   1.06278878142718      2.16328797581176      3.47161946301256
  C   3.33864197635635      1.97817562496891      2.65841642036740
  C   3.52927883472097      1.29284601872544      1.34312980945975
  O   3.28884492363341     -0.02577942639888      1.38913649941116
  C   3.13449442086302     -0.80043079607959      0.24374983331438
  O   3.14023970601881     -1.98438850870582      0.36300646246360
  C   3.61013617650370      1.95246761030290      0.17635059759582
  H   2.74798858045447      1.70496421615602     -3.07970946776319
  H   3.25191925128309      3.11416231154951     -2.14446701221387
  H   0.56292639423489      1.67314840434823     -1.82754982024607
  H   0.82083174826715      3.08966478247760     -2.82865691160591
  H   -0.17639666009119      3.90235331910617     -0.86351609533096
  H   1.52233625307093      4.37209687771357     -0.73312153361412
  H   3.97867159039458      2.86006753213806      2.72344723783873
  H   3.49834113009533      1.31604284174393      3.50540172100363
  H   3.80150306363115      3.01703148971406      0.17651713612895
