19
Coordinates from ORCA-job 5777optt
  Br  2.11100088259584     -1.36568488887503      1.62897528943141
  C   3.03518470042094     -0.47629062130438      0.25932724425831
  C   2.96558501738500      0.84691380741943      0.09393829261990
  C   2.19313479735744      1.88502292013327      0.77207367042975
  C   0.87656779219556      2.07912414717055      0.71044483715377
  C   0.47642863640143      3.51527184217931      0.55196962763896
  O   -0.51651746903834      4.06819080732437      0.90025830486260
  C   1.56044933493314      4.21458515877106     -0.36563497059260
  O   1.88883319133191      5.35038293161457     -0.26964794009140
  C   2.12822986892510      3.22935304421525     -1.44146767376138
  O   1.41144649960599      2.89123218559569     -2.33640564633399
  C   3.59958272814919      2.72908937632108     -1.40105425613559
  O   4.46642360601818      3.39030130850555     -1.88070617490981
  N   3.80622754196301      1.42855580915485     -0.88400649137356
  N   5.19225578786308      1.05582701453207     -0.85364134049697
  N   5.46606893069661     -0.11417314622402     -0.75359173367036
  S   4.19974130461527     -1.34895219195544     -0.67557593734227
  H   2.81124500160522      2.74646446568065      1.02874999124437
  H   0.16811184697539      1.30378602974114      0.44199490706886
