25
Coordinates from ORCA-job 5780optt
  Br  1.11523403160769      0.16702140951466      0.27287980388025
  C   2.98643738925254      0.06768163758455      0.10999173434425
  C   3.60613341395167     -1.12602765314258      0.07508695469412
  C   2.89248415003716     -2.44743522487291      0.14868065285190
  C   3.68490958761589     -3.56821833612800     -0.51853351634358
  C   5.00618031530986     -3.68321858236675      0.17702615633382
  O   5.53504345861093     -4.69475948475902      0.52179663349953
  C   5.71168083842404     -2.33523690931018      0.46840731675824
  O   6.77780614662242     -2.28083755997333      0.99670807689342
  N   5.01502134749289     -1.18488742550417      0.00501720638906
  C   5.72138241837666     -0.00087209248936     -0.21215649359241
  O   7.02167198093472     -0.17577512824151     -0.54764547413961
  C   7.98143425698022      0.34305485098799      0.29935586669048
  N   9.19415081371300      0.37204800384114      0.02515399856198
  C   5.13099153088062      1.19723055369460     -0.20188326380227
  C   3.70211902815728      1.35110600427043      0.04153261743117
  N   3.07308078874365      2.45446357595840      0.13591912557223
  H   1.91914981979908     -2.33830798709571     -0.32224441388245
  H   2.70078152335644     -2.69548366874273      1.19778336541002
  H   3.86431448202391     -3.32362246291128     -1.56979610244686
  H   3.16807328724593     -4.52386234686419     -0.46732723531678
  H   7.57303576936262      0.72474205326665      1.23228078402418
  H   9.39098290955708     -0.03101057776122     -0.89085285978614
  H   5.72413592298456      2.06824725503464     -0.44767011620500
  H   3.70976478895907      3.24496009600991      0.05248918218044
