19
Coordinates from ORCA-job 5781optt
  Br  1.15068556008647     -0.12024927569730     -0.81390626760324
  C   2.96669042277067     -0.13509238749406     -0.34543005128842
  C   3.68697298725411     -1.28708203776324     -0.22258188745017
  C   3.39993565728020     -2.66439445731143     -0.36895772552957
  C   4.59952527340936     -3.30055654744423     -0.12530533550350
  C   4.87518511381827     -4.76944614879092     -0.18390937683389
  O   5.05510836910987     -5.20848205883605     -1.54415000992083
  C   3.94538462963328     -5.46949423567157     -2.22858713587935
  O   2.82748883180087     -5.38006817545743     -1.81190692166891
  N   5.62903668325571     -2.44000518159262      0.17393217605349
  C   5.10738963142715     -1.23388066362571      0.12325275104000
  C   5.78315751317683     -0.01267212929102      0.35420047141842
  N   5.22902365560519      1.15967406828101      0.27880561302055
  S   3.66562767439502      1.39162670718333     -0.09477330116979
  H   2.45974271041439     -3.12240596023313     -0.62735874605110
  H   4.06696265786065     -5.34243720479014      0.26772778780438
  H   5.81938152803826     -4.98019732949610      0.30941700418092
  H   4.20665386066064     -5.78772403089322     -3.24455710400981
  H   6.83804724000299     -0.03611295107615      0.61108805939082
