27
Coordinates from ORCA-job 5783optt
  Br  1.03979372563108      0.30605572633187     -0.56250386842139
  C   2.89138414246196      0.04819957501724     -0.37098465885378
  C   3.47565177737620     -1.14794488973340     -0.58751966356457
  C   2.68509604393975     -2.36332647893407     -1.00604916412082
  C   2.05844001622313     -3.10617975539987      0.19187235257378
  C   3.06357997885951     -4.02179091521370      0.87714394881809
  O   4.31244512972033     -3.31828834531263      0.96868208935229
  C   5.20113619835511     -3.59068658127207     -0.00568759513085
  O   5.55014351136274     -4.69602006567867     -0.31588989649266
  N   5.63974527605613     -2.42328971166945     -0.60416684288306
  C   6.68289985070838     -2.41378482991623     -1.57249185207556
  N   7.43826986899468     -3.34599334049829     -1.93187694397636
  C   4.91819666286076     -1.22103665092191     -0.36631973734547
  C   5.58160094848326     -0.13362751727435      0.03277366701262
  O   4.99548299137074      1.06093694790397      0.20676980659949
  C   3.63941687187680      1.24615959452382      0.02571751516655
  N   3.12255217340582      2.37965957407293      0.19555616955674
  H   3.31793178480903     -3.04364116352677     -1.58090869339006
  H   1.89162550396596     -2.03342735206797     -1.67323198359336
  H   1.21177925567840     -3.70455196243062     -0.14891659223950
  H   1.66838157632361     -2.37164409850060      0.89809769870996
  H   3.22568797208527     -4.94444207244990      0.31921614804141
  H   2.76591606523846     -4.27210543690955      1.89274005483581
  H   6.78220406217816     -1.42353745994245     -2.01302282260942
  H   7.22984675060934     -4.22300182876062     -1.45820452814804
  H   6.64105855315462     -0.11597009645622      0.24662096607572
  H   3.82473330827070      3.06627913501954      0.46258442610247
