24
Coordinates from ORCA-job 5784optt
  Br  1.05574119567592      0.22017404802740     -0.27394634901677
  C   2.92252679605002      0.04414890824670     -0.13475911877581
  C   3.57045601799155     -1.13004072772283     -0.36619612485586
  C   2.79975633805454     -2.35043366978368     -0.83826953415974
  C   2.09974165284489     -3.19436256431152      0.25706577256174
  C   3.06047250673504     -4.11383913223479      0.97693987056078
  O   2.89397044364768     -5.28083211705777      1.18967066552824
  C   4.32864936564948     -3.34607674233679      1.32856127478153
  O   4.36241999538024     -2.53056609615423      2.20291018322623
  N   5.33089079230214     -3.47364491065702      0.35885236636054
  C   5.84984629302723     -2.36943685681703     -0.32481557215243
  O   6.87325539801065     -2.44229205126452     -0.95173048940881
  C   5.00998896913202     -1.14160775741049     -0.24159054103488
  C   5.66714504634791      0.01258403571017      0.02209898663608
  N   4.99469614878793      1.16121172548058      0.22546281393995
  C   3.60644295514599      1.29067990595740      0.21039758073556
  O   3.08807988299190      2.35698719256469      0.44307662105272
  H   3.45484583937436     -2.98832358271002     -1.43228169352533
  H   2.01958930557001     -1.99304122656856     -1.50788036803862
  H   1.31276043060259     -3.80718076435531     -0.17961331695154
  H   1.65041892795208     -2.52705323338417      0.99851039677764
  H   5.56580347543941     -4.38929405748846     -0.00180224922752
  H   6.74503536764407      0.04739426599253      0.10075793019517
  H   5.48946685564230      2.01584540827775      0.44158089479115
