26
Coordinates from ORCA-job 5786optt
  Br  1.11277068088675      0.02935182348650     -0.32617866113590
  C   2.98090777625298     -0.05995267876950     -0.15211737714350
  C   3.64680629199182     -1.24379870892584     -0.02709636331330
  C   2.93207222369478     -2.58150362852174      0.06476624332342
  C   2.25626855580350     -2.75948184851054      1.43764215949414
  C   1.59171237180919     -4.11434050358483      1.43506118897567
  O   0.58320001514783     -4.36346074923373      0.83391645430746
  C   2.26981115823267     -5.25587892066689      2.19788657787385
  O   3.26939590769310     -5.10325429575795      2.83729995978607
  O   3.76869616377930     -3.68066705624592     -0.21761412542813
  C   4.99913131899541     -3.64054814494253      0.48042058083711
  C   5.80517943376319     -2.46850538426201     -0.01625712470610
  N   5.00655868502456     -1.24199622947341      0.05733507751557
  N   5.74057471847685     -0.12828851951400      0.01776516796393
  C   5.14339505615825      1.00821773246670     -0.07358045178088
  C   3.69474925622844      1.20281206257565     -0.17645413853039
  O   3.18779168311027      2.30306892957820     -0.27759656511771
  H   2.15258150862875     -2.59942437728689     -0.69728088064514
  H   1.48991645878540     -1.99715653538930      1.56850633745877
  H   2.98231983058935     -2.68831072040006      2.24593914519342
  H   1.75400610546170     -6.22672563952743      2.09967250648785
  H   5.51535936291035     -4.57365093499985      0.26470030951960
  H   4.83736924915906     -3.58200913370084      1.56019586991852
  H   6.10392046858322     -2.62466831274846     -1.05474131497561
  H   6.69471040011935     -2.30424392661451      0.58768193606794
  H   5.77479531871387      1.88841570096922     -0.08787251194669
