22
Coordinates from ORCA-job 5787optt
  Br  2.41250646550358     -0.98392231969282      1.55491899180160
  C   2.89508143933755      0.19238315841965      0.17928956869785
  C   2.51706217215125      1.48187719702124      0.14887536805058
  C   1.67042217235896      2.07063613028730      1.25088063609007
  C   0.20499474468750      1.55982362154428      1.23566276865368
  C   -0.86117832569067      2.58889481291703      0.92837148269621
  O   -1.94586771989971      2.60995675431294      1.42219541210038
  C   -0.48598254493399      3.68424365813262     -0.09516063701135
  O   -0.90220898180621      4.78956476843703     -0.10968516106674
  O   0.48807135419566      3.20405101770113     -0.93832194997833
  C   1.55435632628229      4.04328507781875     -1.16506604023693
  N   2.72700568976911      3.61637149283966     -1.19202452042534
  C   3.00248045989821      2.24724250052389     -1.00549328686150
  N   3.77729932645999      1.77586078259972     -1.91149121583189
  O   4.13042715479656      0.46362316122567     -1.84790216783475
  C   3.71870552305547     -0.40556022101212     -0.87983578298460
  O   4.05351272471137     -1.54625237314740     -0.95122569064620
  H   1.72235930571228      3.15909694434067      1.22827009134639
  H   2.12077197008114      1.76926793417263      2.19648991626715
  H   -0.06596676666842      1.11368673626199      2.19039664287441
  H   0.09481203134546      0.77387787065921      0.48246046743689
  H   1.30533547865260      5.09199129463692     -1.28360489313757
