25
Coordinates from ORCA-job 5788optt
  Br  7.72179699152710      0.36212464467536     -1.90099281607001
  C   6.93621663582722     -1.19415829634471     -1.18563433120251
  C   6.76187898181032     -2.29466809887295     -1.93548447526721
  C   6.02884452819876     -3.49943665962318     -1.40652376818461
  C   5.60749937800143     -3.37040756576541      0.07619817438194
  C   6.55368007397657     -2.48083376469539      0.81168406897890
  O   7.13835941730651     -2.92507979535529      2.00551674682510
  C   8.44083466876418     -3.25527883224356      1.81857564806481
  O   9.30143026127807     -2.97750374041612      2.57793144117216
  S   8.72230642674768     -4.32058579652200      0.33418910419928
  C   9.37683782004242     -3.16957847010819     -0.89750593646288
  N   9.97830267840057     -2.08623345332079     -0.72894879189070
  C   9.21972757471493     -3.73028942775600     -2.29887915903180
  N   9.83149275098954     -4.76953896164403     -2.67896420529716
  C   8.37639955181100     -3.05475953614091     -3.35813266849718
  N   7.28862728854483     -2.42425489319901     -3.22524686906163
  C   7.00692774796280     -1.35812547385718      0.26359329696247
  H   5.12927924160545     -3.61848886480127     -2.01436671958216
  H   6.63324260341237     -4.39156724437904     -1.58107283310544
  H   5.56284916205308     -4.35292920780035      0.54293782188950
  H   4.60882813795823     -2.93187727448109      0.12305223717613
  H   10.11065108762035     -1.82487147573777      0.24898160468172
  H   10.38481498346615     -5.19154759156809     -1.93014076540018
  H   8.76984794154477     -3.20894635340907     -4.36072868727801
  H   7.67532406643554     -0.70316386663392      0.80996188199948
