26
Coordinates from ORCA-job 5791optt
  Br  1.24493386084456     -0.01031877189595     -0.54622524409584
  C   3.11822004538215     -0.08259866030978     -0.40204931607081
  C   3.92059707364653      1.00795015120167     -0.25467806209163
  C   5.32787605717814      0.70375517422766     -0.09320043780585
  C   5.83100902482761     -0.54996902762841     -0.13933521942499
  C   4.97160038579583     -1.69243055709416     -0.34336125951755
  O   5.30049605208286     -2.85621238962388     -0.42063235142106
  N   3.61572259403831     -1.34132973580096     -0.42753007761496
  C   6.14304242674561      1.86482296817945      0.30926601187451
  N   6.75500686140700      1.92422502987486      1.41813719574383
  C   6.87875223976421      3.36460385145931      1.73369659254389
  C   5.74942918762691      3.95471099994326      0.87445822374422
  C   4.37391558648375      3.59331977735824      1.51934550884124
  N   3.32719105121038      3.35632463831633      0.54949632795871
  C   3.30023249980820      2.39122630064604     -0.43668906785947
  O   2.65106194739084      2.58840137362126     -1.43943246382905
  N   5.81669758821710      3.10800655869697     -0.31472271422046
  H   6.88456510855774     -0.73760589539420      0.00763274031554
  H   2.97954112537367     -2.12129979420372     -0.52838483861209
  H   7.86680904094246      3.74313364893837      1.45733704199693
  H   6.73985606375171      3.50241620555952      2.80571421464655
  H   5.83335301955224      5.01151063089367      0.62880226821566
  H   4.04590026843736      4.38824246532553      2.18709848707542
  H   4.49611054136883      2.69626353597831      2.12781377547166
  H   2.86577784554435      4.18506124233294      0.19875055392116
  H   6.48730250402164      3.38979027939766     -1.02130788978555
