22
Coordinates from ORCA-job 5792optt
  Br  1.19287386074808      0.39488381734801      0.68368903923783
  C   3.00186967384612      0.10629366066938      0.26066624279316
  C   3.61123973914220     -1.13364436351510      0.11794672544073
  C   5.05820368817034     -1.09954027180758      0.02575956980497
  C   5.76475018384424      0.07421374738845     -0.04072297300191
  C   5.12092518818422      1.34438899661068     -0.00295356897985
  O   5.59898250260296      2.45515511565323     -0.07963682707807
  N   3.71382158139552      1.23042224469162      0.19573182913909
  C   5.75697797158837     -2.35312342621036      0.05126271798915
  C   5.08476366880781     -3.51564904631710      0.13464169081257
  Br  6.09790062510837     -5.11297732160111      0.26788457151939
  C   3.64695619535577     -3.57044773107501      0.10902846909537
  C   2.91432358408495     -4.85892579584182      0.07178026976565
  O   1.71138630063073     -4.92764019093025      0.04941856078735
  C   2.93736326610958     -2.39776182379099      0.07852890143944
  C   1.43889713875699     -2.46360779028467     -0.16480400605985
  O   1.00540204479489     -2.22731690899106     -1.25540984833377
  H   6.84307893245598      0.07139704440076     -0.10891167740111
  H   3.24643151911278      2.12188826551614      0.31248478375228
  H   6.83801838058506     -2.33855934652229      0.02830010760405
  H   3.52693461106345     -5.77049132288512      0.07268043030810
  H   0.79689934361156     -2.70395755250577      0.69363499136544
