24
Coordinates from ORCA-job 5793optt
  Br  1.99761378525475     -0.75641548995867     -1.57645024391159
  C   3.39721933751991     -0.17842320020591     -0.47155437226525
  C   3.82028484178621      1.11063891397525     -0.39099126277327
  C   4.92476469880909      1.37903740896802      0.49151487306890
  C   5.52336594919762      0.38914931484861      1.20183299760450
  C   5.09775701109599     -0.98964552328597      1.09290743084512
  O   5.58127809936526     -1.94241863330114      1.66387609584265
  N   4.00306318440896     -1.16132723762937      0.23541483457216
  C   5.35739526778643      2.79952529851020      0.67007787586081
  C   5.65113556683332      3.21755580746449      2.09629984583977
  C   5.89473762749875      4.64078425729072      2.27166851363073
  C   6.09066940442829      5.80683209802874      2.44847804515756
  N   5.48083026080652      3.64508892657940     -0.26647238011712
  C   5.19579828967610      3.37407506456581     -1.60125426859777
  N   4.16376522381501      2.81238656435604     -2.07554141617829
  C   3.23910199608137      2.21781660389229     -1.19452321872622
  N   2.01499853702763      2.51228214567753     -1.12544014177017
  H   6.34536300605478      0.57100620852938      1.87841685173215
  H   3.67395001004861     -2.11401685156725      0.14415303188439
  H   6.51921212858059      2.65266905658419      2.44939857653828
  H   4.81411300154204      2.89755679979215      2.72337093077772
  H   6.26243266615252      6.84598588807281      2.59775731209293
  H   5.92117993987005      3.79562352459150     -2.29186885166275
  H   1.79797016636008      3.26223305422112     -1.78407105944525
