24
Coordinates from ORCA-job 5797optt
  Br  1.30109085929998     -0.36885228462746      0.54915930729508
  C   3.10988454215460     -0.23018693095660      0.07491955805979
  C   3.74741521312875      0.93811265819840     -0.24195972525640
  C   5.15495873747284      0.83211853094731     -0.51098087337589
  C   5.81498882887452     -0.34948475546316     -0.50204498452412
  C   5.14052968617170     -1.58465144835566     -0.16738535358507
  O   5.62121586097036     -2.69234189530914     -0.11488425917700
  N   3.77708385829587     -1.39980863892819      0.12566556735000
  C   5.99258300586456      2.04085926185881     -0.85814355800397
  O   6.38478022198609      2.23720795237791     -1.97369336209468
  C   6.43315682219938      2.94269216245454      0.28713080707196
  O   5.63670333501509      2.85166538823347      1.44657211771758
  C   4.35911015152763      3.33753917332847      1.42890060884638
  N   3.73185572305224      3.55233820932754      2.49447171203377
  C   3.67195105858069      3.51593156700546      0.09947554958702
  C   3.00014703412258      2.22483017427846     -0.36938636622367
  O   1.88337539475314      2.26438709004983     -0.80870269227005
  H   6.86657779473185     -0.41848287703648     -0.74375800703604
  H   3.28115067607711     -2.24252891370141      0.38833293094412
  H   6.52181923736207      3.96661150190165     -0.08096717757473
  H   7.42708738732539      2.60352999103647      0.58521809569942
  H   4.31562160637163      3.35592109502199      3.30744927839539
  H   4.33439995285986      3.88808046759590     -0.68446916830401
  H   2.87051301180198      4.23751252076186      0.22807999442514
