24
Coordinates from ORCA-job 5803optt
  Br  1.10004449918082      0.03366077704589      0.18198991289100
  C   2.96847879445175      0.07818361437525      0.05650361678624
  C   3.62114206990306      1.25149105394199      0.05673207057820
  C   3.07968644414205      2.65889801951845      0.11855687932761
  C   4.34301301219695      3.54449580992685      0.15826693989487
  C   5.51454925238976      2.59961717057357     -0.01603879893531
  O   6.67493925066863      2.85716830618415     -0.11597800134428
  N   4.99272301208970      1.29331320343999     -0.03443411848840
  C   5.74902516477029      0.15033502861400     -0.13547261894053
  C   5.15293158592649     -1.05055626265581     -0.14370805480749
  C   3.69547164706204     -1.20362331919121     -0.04638922032057
  O   3.14275588185729     -2.28182447079914     -0.05463924269986
  C   2.24076834245529      2.87280963512946      1.36329907224938
  O   2.55514608711336      2.50339832405226      2.45195807648417
  O   1.13466750621716      3.60393095064094      1.08404396332858
  C   0.23836593183718      3.85081519401029      2.11608117081908
  N   -0.75176347986485      4.59163028432400      1.96919100172051
  H   2.46802975177649      2.85976627933660     -0.76005548709510
  H   4.46745066013864      4.04583057795153      1.11901453485323
  H   4.36648680528353      4.30048059854947     -0.62297048776628
  H   6.81483468420672      0.31887279131790     -0.20291451481091
  H   5.73561082304842     -1.95710278759768     -0.21975280240492
  H   0.47852123023042      3.33326550530191      3.03740962554566
  H   -0.79787895708123      4.98614371600930      1.02930648313511
