27
Coordinates from ORCA-job 5804optt
  Br  1.26225867611697     -0.09111722603763     -1.13095102200949
  C   3.04356324714906     -0.13304469803545     -0.55767390915782
  C   3.62629486548863     -1.26045083382860     -0.11725986713936
  C   3.19857006607098     -2.60896955613666      0.09162418834236
  C   4.25072360260314     -3.31314730951069      0.56926969957551
  C   5.43405939281251     -2.44132134697931      0.69376168380517
  O   6.56645086146700     -2.67616771924021      1.07585703572931
  N   4.98859349473575     -1.20916649689785      0.26398557529078
  C   5.70235903036137     -0.02222242293882      0.15865906150808
  C   5.08468022011746      1.08528179886231     -0.25662656808187
  N   3.71945080914750      1.05600306370417     -0.58433414796314
  C   5.74458228312331      2.44030969296360     -0.31377552742792
  C   5.82586129715903      3.10074554413423      1.06345271015108
  C   6.36884432951905      4.50097514917935      0.87668806926978
  O   5.56243879175065      5.23727024861242     -0.05009330815250
  C   4.98272301774017      4.53536435785570     -1.03286391932496
  N   5.02030212497062      3.29360966874898     -1.25218150343401
  H   2.19883548837500     -2.96103679456821     -0.10718582205017
  H   4.27461377138145     -4.35748605051218      0.83518679933886
  H   6.74323978820725     -0.06656352448116      0.44382222939647
  H   3.39116911481780      1.81227998890996     -1.17134704113697
  H   6.75844444957997      2.29239779808314     -0.69722368119946
  H   6.47111185978080      2.52880893901799      1.72969020536196
  H   4.82755147408322      3.13839894413213      1.50612388657093
  H   7.38929057960426      4.47241063306105      0.48616642656899
  H   6.36244978831080      5.07883932775995      1.79797104625748
  H   4.41553757552619      5.19099882414178     -1.68674230008908
