27
Coordinates from ORCA-job 5810optt
  Br  1.09544324191740     -0.02296157612201      0.19032450106531
  C   2.97499886579149     -0.04715377624924      0.02015099705544
  C   3.62804413058990     -1.21856527964369     -0.05525051760566
  C   3.11140590953495     -2.62698187614856     -0.03369241400803
  C   4.36664730011703     -3.49180063116251     -0.16896783909416
  C   5.54250802975362     -2.53537999064090     -0.25881376147767
  O   6.69240280118386     -2.79532102763032     -0.37978020988975
  N   5.00363920476932     -1.20523562380210     -0.17320641376329
  C   5.75258792889292     -0.01803224754240     -0.20721125159461
  O   6.95186223957879      0.01280127277141     -0.30203799297538
  C   4.89953522356303      1.19835190219171     -0.11087030132662
  C   5.61905953013139      2.50909788712271     -0.15878561095005
  C   6.06634185280269      2.86908238427667     -1.58007339334964
  C   4.86688583390259      3.16871751563146     -2.48610925042073
  C   5.28977621114339      3.56341673810432     -3.82732633203946
  N   5.64807306127380      3.87278974648236     -4.87060335545279
  N   3.61606879169740      1.15455671497905     -0.01025283722725
  H   2.40144659463338     -2.77533877669916     -0.84736903266393
  H   2.57021152721848     -2.80678126477160      0.89531097633182
  H   4.37064472639293     -4.11271611257154     -1.06363804403863
  H   4.53367167224396     -4.14901849927155      0.68304932900389
  H   6.50417261483280      2.44270396053209      0.47525151747956
  H   4.95234418261508      3.27588768470228      0.23581039187869
  H   6.65985231558455      2.05581398415223     -1.99975824885940
  H   6.71082797070661      3.74749036948743     -1.53948954491874
  H   4.26495279209189      3.97626815486132     -2.06429270925080
  H   4.21259544703671      2.29930836696054     -2.57236865190808
