23
Coordinates from ORCA-job 5811optt
  Br  0.86922884701220      0.15171081685632     -0.12635799614540
  C   2.71519035255114     -0.10348645101073      0.05202427909343
  C   3.55410308359297      0.94114272553293     -0.03612504692366
  C   3.24108189776390      2.39147682296589     -0.27162546604036
  C   4.59523579316388      3.09799264400412     -0.19482692446740
  C   5.63423341214604      2.00868104371438     -0.04633520356812
  O   6.82010521914069      2.11537422867743     -0.04204116387142
  N   4.92534582243681      0.77746121206580      0.08312830547160
  C   5.45183325468747     -0.47950949819403      0.31112166355898
  O   6.80001219299540     -0.53874583300844      0.48798090676943
  C   7.58024795484171     -0.49409175898097     -0.64080689892650
  N   7.25271019646933     -0.65045785637796     -1.83471233215337
  C   8.96425067439748     -0.26082811032634     -0.26762282438816
  N   10.05845196677539     -0.09534038202170      0.02109834959318
  C   4.66674576789561     -1.56075880193441      0.39963401724703
  C   3.20694725943503     -1.47415651536803      0.27728623165410
  O   2.48500132401477     -2.44282784308226      0.35038182245541
  H   2.52927747566670      2.74210228514533      0.47451113680266
  H   2.76169156491955      2.50498765649776     -1.24453865854737
  H   4.68340998686911      3.75699348902015      0.66900162605722
  H   4.83922952517440      3.68597861972540     -1.07751612674821
  H   6.25775147251189     -0.83691376963007     -1.96220721330570
  H   5.10991495553847     -2.52978472427059      0.57954751638265
