23
Coordinates from ORCA-job 5814optt
  Br  1.12903957773428      0.02408556375909      0.20524039179706
  C   2.98307708510566     -0.05384754733633      0.03314178283709
  C   3.69503929979212     -1.18171524316744      0.01920114166142
  C   3.39724529984567     -2.58779417076891      0.09657906257222
  C   4.56056234938370     -3.26057320566309      0.03760056520698
  C   5.70267047037521     -2.31445248287282     -0.06165073368322
  O   6.89257925282998     -2.52876205910560     -0.08388321181120
  N   5.09391694051109     -1.07594661692046     -0.11366653122281
  N   5.76950885725226      0.11925958795847     -0.04670212026599
  C   5.03316546801338      1.15073946713736     -0.04051456299470
  N   3.64455899351852      1.15795113172595     -0.10710008134136
  O   5.49825468759364      2.39471331693771      0.02704740049749
  C   6.84413294685869      2.65664929726544      0.07421160550813
  C   7.93516271284987      1.83198566340049      0.05451422470641
  N   8.99158893679431      2.70888899072769      0.12322951825915
  C   8.49486660751865      3.96437413603739      0.17968223189385
  N   7.18632026954833      3.96365719704818      0.15130553211748
  H   2.39761574020517     -2.98540303137144      0.17338473522939
  H   4.70839731043256     -4.32792951052313      0.06895434221232
  H   3.17343571238849      2.02411114028011      0.10305800605043
  H   8.04538691259795      0.76666442116077      0.00176634930297
  H   9.96296809852012      2.44972843716861      0.13197352055309
  H   9.12050647033029      4.83961551712195      0.23562683091381
