22
Coordinates from ORCA-job 5817optt
  Br  1.14429668610299     -0.22748892098041     -0.04197092277571
  C   3.00674243474835     -0.04463060732344     -0.06243557344993
  C   3.65383079624885      1.14915080227893     -0.06981687008925
  C   3.03517372626051      2.44272210715990     -0.06902990107987
  C   3.76221382658626      3.57713988347487     -0.07160225271011
  C   3.07527542348565      4.87739619675826     -0.07265181349338
  O   3.61624214143673      5.95115905822627     -0.07457412993038
  N   5.15880802114461      3.49678559746514     -0.07345947563191
  C   6.11633713534535      4.46478422641533     -0.07298930373885
  N   7.32511724847312      3.94943606383493     -0.07513987436574
  C   7.16703740646342      2.60227169495664     -0.07689066011197
  C   5.83226930990045      2.27919268347032     -0.07606915734936
  C   5.10851159348936      1.03933137327185     -0.07661412202552
  N   5.74489231930808     -0.08671178247272     -0.08156053321524
  C   5.04734032642348     -1.26615091721013     -0.08231176917580
  N   5.48568352656237     -2.43816168309077     -0.09385369007643
  O   3.62289896627045     -1.19674428746467     -0.06679590050870
  H   1.95600448579216      2.51859124734399     -0.06747933764669
  H   1.97518151658809      4.78350586475905     -0.07166988936597
  H   5.86571850438061      5.51066196238444     -0.07128608332823
  H   8.00087678122610      1.92031237093458     -0.07850126369151
  H   6.50154782376296     -2.41255293419239     -0.10329747623945
