22
Coordinates from ORCA-job 5820optt
  Br  1.03198980063140     -0.00704244230034     -0.01326785113555
  C   2.89972483016211      0.12675931321940     -0.01297629995327
  C   3.51918870489803      1.34026527303823     -0.01296914295312
  C   3.09353833325411      2.70610334826619     -0.01310111453758
  C   4.25198710265200      3.43260169949119     -0.01299980150554
  C   4.40044584182889      4.90058518155123     -0.01298011342404
  O   3.47506134742992      5.66778038032565     -0.01325379976796
  N   5.40664704010559      2.64317852638864     -0.01283736779542
  C   4.98359118580175      1.41580302492935     -0.01281147683457
  C   5.73878786912022      0.19355025690872     -0.01264044711129
  C   7.07366128020175     -0.03761453821355     -0.01245801093801
  C   7.35203374130880     -1.48180592305300     -0.01226819827168
  N   8.44091605106839     -2.11916450577966     -0.01208694969854
  C   5.98303691684002     -2.17373754594439     -0.01242402941777
  O   5.76697879276828     -3.34762952888531     -0.01223629836107
  C   4.99233933123190     -1.05738826062303     -0.01261654390868
  C   3.64827522453254     -1.11163885914416     -0.01276460620619
  H   2.08625510511670      3.08870296746017     -0.01321601809363
  H   5.44733307527038      5.25049091851706     -0.01286493949585
  H   7.83543158232238      0.73091938749000     -0.01242223587218
  H   9.24440210141098     -1.48775192615174     -0.01206135777674
  H   3.12337474204382     -2.05796674749069     -0.01274339694134
