23
Coordinates from ORCA-job 5821optt
  Br  0.87390197029655      0.02987902416087     -0.38239727741330
  C   2.75541498666011      0.01269232825973     -0.19565719000387
  C   3.47117425661669     -1.11932466273293     -0.00544626570910
  C   2.84248331825575     -2.42301551119668      0.07589813501712
  C   3.57417584144263     -3.50569171957759      0.34291196144360
  C   5.02836600671169     -3.40424168203437      0.56891977325646
  O   5.68006489732516     -4.37106126426206      0.88920982898546
  N   5.63487936626898     -2.15739869531953      0.39329767565076
  C   4.94032244849780     -1.10317114052298      0.13178528924364
  C   5.66384556327385      0.14280350324805     -0.10107107613521
  Br  7.53613234197973     -0.00073186088062     -0.26408712002846
  C   5.09865878823770      1.36341085796876     -0.25562629605333
  N   5.77966437269655      2.54907126881298     -0.42722897255985
  C   6.75884421139951      3.01470816553029      0.56798450568692
  C   6.35115262776418      4.30913822610664      1.11269904506193
  C   5.98519946629750      5.37239117075102      1.52340729264719
  S   3.37160291119654      1.60749989910571     -0.25228091661111
  H   1.77353394896017     -2.49162754549455     -0.06907884235838
  H   3.13874902923129     -4.49229205868962      0.42492679920241
  H   5.21883377642606      3.30467399321771     -0.79389231745629
  H   7.74842341062950      3.09282678133594      0.11586836707360
  H   6.82837026600605      2.28156020251507      1.37122813703107
  H   5.66920619382571      6.31690071969814      1.89862946402872
