25
Coordinates from ORCA-job 5829optt
  Br  2.77564675754815      0.05957022246336      3.09093144066536
  C   2.84771461453117      0.26184744320112      1.22099530692682
  C   3.37465620253449      1.35127863229538      0.58517789010253
  C   2.92099323779174      2.71874793189176      0.87561385844027
  C   2.54777822478064      3.41963847021013     -0.20570125159138
  C   1.31290809419970      4.23578517310873     -0.31143168845228
  O   1.08398286243558      5.33405169953287      0.10882976815251
  N   0.30636837351596      3.52406834219447     -1.06675109935565
  C   0.13827294177765      2.15847003800673     -0.74889672783718
  C   0.78873881562288      1.08109655973682     -1.29954096055790
  C   1.00140813197733      0.18637993632810     -0.20235009233247
  C   -0.01729216242463      0.55461973948558      0.85453023248532
  N   -0.50742134470656      1.85638474886323      0.42145101149369
  C   2.12260366483386     -0.52844563378978      0.16311242130534
  N   3.08052318152644     -0.83915462670154     -0.84717540212310
  N   3.92434104837179      0.07939922716301     -1.28331372237027
  N   3.91270663463232      1.19302450264553     -0.70768592490474
  H   2.55025985919771      2.93279485997848      1.87187600878078
  H   2.90265687808505      3.07196682914731     -1.16877275775620
  H   -0.55548211538652      4.06113983489817     -1.05444315608880
  H   1.38603399112926      1.12571997758518     -2.19574291272244
  H   0.39483712017439      0.59576779429457      1.86161966784701
  H   -0.80667298143400     -0.20204908350517      0.84306527387280
  H   -0.58578301967313      2.59393714837064      1.10651038087130
  H   3.23722098895874     -1.76403976740471     -1.21590756485133
