22
Coordinates from ORCA-job 5835optt
  Br  1.33451282453448     -1.41017471651265      2.11789992703866
  C   2.53621871699014     -0.56906043714559      0.95268749687025
  C   2.54149836030920      0.76048030157823      0.80814662134040
  C   1.79199212878222      1.85279705620518      1.45591081344284
  C   1.09982439826301      2.59994046689547      0.58382882440223
  C   0.31943416226966      1.96035967220732     -0.51262498206036
  O   -0.05084573631338      2.53762417272453     -1.49523131502167
  N   1.49362561719039      3.94542553323640      0.40056034494272
  C   2.67395096030502      3.90647963578519     -0.09488888745384
  C   3.50927730932163      2.71066051438627     -0.46217314279671
  C   3.48042110859837      1.38948089634766     -0.13704533631695
  C   4.51500910974632      0.49586635492917     -0.76936994025544
  O   5.46141715934094      0.93527867545757     -1.36321624066564
  N   4.35229124041318     -0.90133770545340     -0.65143028448369
  C   3.46335757884133     -1.38737431056831      0.13348626108645
  C   3.35297643070212     -2.81619750923187      0.21347860669453
  C   3.26428290965927     -4.00829991599203      0.27896128909783
  H   2.34907759021516      2.37652178257641      2.22895948542920
  H   0.09714283378228      0.89135032847630     -0.33777122001702
  H   3.12928246253739      4.85843533649418     -0.35739834393134
  H   4.30997228614484      2.96361127062692     -1.15144769989432
  H   3.18928054836637     -5.06886740302297      0.33667772255188
