27
Coordinates from ORCA-job 5836optt
  Br  1.12026617927404     -0.19168918956410     -0.51862051468153
  C   2.97899750246724     -0.06572326700581     -0.20103920675567
  C   3.78687033573101     -1.18221127809098     -0.13745676152558
  C   3.48378350521062     -2.65350679403381     -0.23665495405360
  C   2.58842919693128     -3.16809208343264      0.91384800286442
  C   3.18143313514392     -2.76888030962953      2.24053621959922
  O   4.06050975477924     -3.38974488069940      2.77257602089498
  N   4.82249441060001     -3.22704191263219     -0.19857159485867
  C   5.02241489250344     -4.65492122721094     -0.10837228302551
  C   4.15060359057958     -5.38198422124160     -1.03281587686292
  C   3.42190275955792     -5.97173989084852     -1.77644562530222
  C   5.81707222791467     -2.31143403178107      0.10572412421366
  N   7.05128108714600     -2.46181045041664      0.35157123395750
  C   5.14057319339365     -0.99629305180855      0.08137590261019
  C   5.65702615966668      0.27720016000842      0.24279113343456
  N   4.87250546793109      1.34961684447599      0.18545829954320
  C   3.57179249841624      1.18240390665592     -0.03391248105565
  H   2.98806571164403     -2.89573812747280     -1.18154807626298
  H   2.53247883782323     -4.25582908586384      0.85073281722722
  H   1.58860997918750     -2.75182487461705      0.79526945109628
  H   2.79995871446172     -1.83488790760634      2.69408511371881
  H   4.85446309661386     -5.00955988421602      0.91569537977188
  H   6.05991159447347     -4.87275129705899     -0.36801860676056
  H   2.78617156994499     -6.50410614871074     -2.44357265479511
  H   7.34914405487669     -3.43316979362269      0.36428289588593
  H   6.71456460175214      0.42930514065646      0.42069119992467
  H   2.96167594197551      2.07741365576759     -0.07760915880252
