26
Coordinates from ORCA-job 5843optt
  Br  1.11672210887638     -0.03891652760422      0.39611085290826
  C   2.99399020346826      0.10205065213086      0.20195224886375
  C   3.62688572167051      1.32850194079168      0.22926968111978
  C   2.92624086676378      2.65128969154251      0.33730424663378
  C   3.63744889658748      3.65407438590019     -0.56393380303635
  C   5.09020596957190      3.79563411997401     -0.18226916459927
  O   5.66539457892578      4.85743794372205     -0.19894285995397
  N   5.70702330660003      2.61202741300853      0.21825665318873
  C   6.99911895253406      2.61034524749440      0.81760337709081
  N   7.88284695194908      3.49952362158447      0.79689181241901
  C   5.03601830263960      1.35878333991094      0.10449312919060
  C   5.76894472207919      0.20839568861452     -0.10228138436523
  C   5.11747836985774     -1.02874839038377     -0.11993471426934
  C   3.72500692045014     -1.07524505137250      0.04586458582908
  S   3.12882471473471     -2.69414960453375     -0.00226339810622
  C   4.72459178040128     -3.30410317417324     -0.24447719103615
  C   5.67112836139948     -2.34171312617902     -0.28992976388412
  H   2.94876262763056      3.00270046019693      1.37394382740212
  H   1.88126269843854      2.55798337073270      0.05216709992930
  H   3.20197197819560      4.64903260978174     -0.51030790487132
  H   3.58953640691062      3.31792683776429     -1.60393630893321
  H   7.16620498869159      1.69266607511589      1.37752586500711
  H   7.59630933275982      4.31083421428621      0.25368026674218
  H   6.83826896027846      0.25549764314162     -0.25839559908119
  H   4.86874642479149     -4.36858613346198     -0.34086772009527
  H   6.72406585379388     -2.53624324798509     -0.43352383409288
