25
Coordinates from ORCA-job 5850optt
  Br  3.13998605797686      0.53535662258547      2.66367883282126
  C   3.01862763648989     -0.25414896560853      0.96204933128538
  C   2.33037940683549     -1.39857527038674      0.74810110111869
  C   1.62339696892100     -2.11409924006802      1.82357315295110
  C   0.32354940333063     -2.36972089611671      1.75404790479870
  C   -0.18510531716782     -3.58342099984846      2.46274120753011
  O   0.21212790100937     -3.94954944064072      3.53737055062110
  N   -1.14829324887227     -4.28488349682200      1.73157782012274
  C   -1.08432698078704     -4.50969245467393      0.48136136174416
  N   -0.05438894265238     -4.36235353940606     -0.40694961977963
  C   1.32805402590974     -4.08798601450276     -0.15107588686252
  N   2.04847905409989     -4.76038633258582      0.63764938502339
  N   1.79774237813097     -3.09368105527319     -0.98354031216943
  C   2.31125199822184     -1.97096290923204     -0.61554013424397
  C   2.92646911842433     -1.13760265399785     -1.63177514301812
  C   3.57573442176187     -0.00461225851711     -1.31907623997596
  N   3.65313539846171      0.43304363518973     -0.02598117059422
  H   2.21591690311537     -2.62188333749379      2.57934922568428
  H   -0.29179908952358     -1.94145891913455      0.97040179155117
  H   -1.98358484404563     -4.88508306691857     -0.00607325612265
  H   -0.31359287772228     -4.31505710817577     -1.38133140301641
  H   1.52747827604465     -5.52205209169838      1.06807435905549
  H   2.88559042636454     -1.47786727777492     -2.65535882929345
  H   4.07307337858073      0.61413623566100     -2.05168758129099
  H   4.14109854709210      1.28254083543974      0.20441355205978
