22
Coordinates from ORCA-job 5860optt
  Br  2.19652641205720      0.26231211934740      3.33193240822465
  C   3.25953576096740      0.36468272693312      1.77796397477320
  C   3.89436969213314      1.51505279571344      1.42025271715446
  C   3.24896766552994      2.83464122833955      1.30391586030843
  C   1.94084267407103      2.82087120482158      1.00924488064664
  C   1.35261352056850      3.72413286670082     -0.01401064310196
  O   1.65568127264202      4.85461994581935     -0.25875131463165
  N   0.35639679001303      3.00403355297494     -0.72746981814396
  C   0.54511953646568      2.08776299475454     -1.55949899724627
  S   2.16626708176728      1.64216450435887     -2.21943752381017
  C   2.18932343295118     -0.09491563687701     -1.55382614725450
  O   1.34944152106524     -0.90283296359744     -1.78069112303351
  C   3.26835349073931     -0.18122106890968     -0.52813077008595
  O   4.32330284977995      0.60795199933727     -0.74768960820955
  C   4.86201523926925      1.35116085544908      0.31659419631575
  N   5.99325238673852      1.87001179951188      0.24823054647248
  C   2.93551943132677     -0.56738933255000      0.73080654780225
  H   3.86896556154485      3.68372518175093      1.04071680394802
  H   1.34776115875990      1.93844750229582      1.21137567699733
  H   -0.29553028152551      1.52376132708048     -1.95687472020662
  H   6.44635438954588      1.68219719022627     -0.64551376013082
  H   2.12992041358940     -1.27217079348122      0.88086081321174
