23
Coordinates from ORCA-job 5863optt
  Br  0.99131968064705      0.06210226622567      1.43800815354837
  C   2.55553777404332      0.04694939852574      0.42590021808127
  C   3.36999628974064      1.09922681953629      0.24868363770442
  C   4.51094859378106      0.92521209327867     -0.61371512091978
  C   4.79028084389188     -0.25292313183416     -1.19412168043975
  C   3.91897437021726     -1.38964301377867     -0.96353966092461
  O   4.02895720612220     -2.49530068820365     -1.38534546079753
  O   2.79661375878143     -1.12850633638753     -0.14053283545726
  C   5.23681636479829      2.23883860001521     -0.71660519505433
  C   4.52693876658121      3.15248904923926     -1.76893373850344
  C   3.49188492352693      4.05491097694759     -1.09410749996958
  O   2.64441285649825      3.35114242692068     -0.18830960039099
  C   3.33659144435639      2.52340648825714      0.74009308457443
  C   2.81593062172680      2.73826815836398      2.08908445295473
  N   2.45027455127418      2.91535708152864      3.15884552717190
  C   4.87395306763708      2.83949078049931      0.63590287303016
  O   5.54857368075973      3.40911663958111      1.42612955799743
  H   5.64258845240841     -0.42215088341170     -1.83572860113663
  H   6.30698868319214      2.15205324323586     -0.87941815462855
  H   4.05926572180010      2.52639756829522     -2.52851088661811
  H   5.26743126267898      3.78434187908552     -2.25876341303331
  H   2.82372008831440      4.50135911335064     -1.82662201855726
  H   3.99900099722219      4.86286147072911     -0.55639363863156
