23
Coordinates from ORCA-job 5865optt
  Br  0.93936931375743     -0.00444432619894      0.31703851488588
  C   2.79437732828588      0.13443071568623      0.17362194190910
  C   3.46139677547535      1.29516212476808      0.12601429540665
  C   4.91782493852055      1.25163173175879      0.03369986654838
  C   5.55991038670070      0.07758111722531     -0.03360709859842
  C   4.81290670778736     -1.17171852061807      0.01107985811268
  O   5.25511020905587     -2.27546461335584     -0.03120256218540
  O   3.41775184907750     -1.04363064372472      0.12680147354053
  C   5.50903222267405      2.66700108126138      0.01252990710438
  C   6.43375963110440      2.93795125604831     -1.18156772674201
  C   5.78474685177685      2.63797600708632     -2.50953254375564
  O   6.34364594739655      2.07588326646488     -3.40767659153103
  C   4.24333811637659      3.47369491082890      0.05102766599260
  C   3.14381573999485      2.70014264984303      0.12787449146217
  O   2.05410083409714      3.48969852535061      0.16381944895060
  C   2.58196622847163      4.74283900702460      0.10080266105599
  N   3.86986781717672      4.79838193323771      0.03101252970227
  H   6.63296593771126     -0.01810729952849     -0.12031654501045
  H   6.08754841457317      2.81739731143052      0.92817021652522
  H   7.35568921245244      2.36132987041015     -1.11054584902040
  H   6.69581186807550      4.00110305440076     -1.17262900554364
  H   4.73758903692518      2.98210219597925     -2.62352101108329
  H   1.87947463253296      5.55905864462120      0.11510606227382
