22
Coordinates from ORCA-job 5875optt
  Br  0.81364440270076      1.22511979047008     -1.16853693352474
  C   2.48138819685266      0.60613355165281     -0.57615931142406
  C   2.65518233586689     -0.71124810460713     -0.37534286433695
  C   1.73112042162443     -1.81619633857547     -0.67870972479001
  C   1.64008669744468     -2.72922631097398      0.28890617084662
  C   2.22939740781969     -4.02312041153014     -0.07748786298303
  O   1.84780155178868     -5.06272199770850     -0.47686688722462
  O   3.62548062901813     -3.82559043151971      0.08854846917441
  C   4.27100752378684     -2.63086208002057      0.21130808990481
  C   3.94309100699125     -1.31683605896477      0.04723579838441
  C   4.96820552029876     -0.31870889826221      0.23623091502023
  C   4.80515280853856      1.01269936906189      0.06368400026225
  N   5.99872686818892      1.65805304425326      0.34122557173558
  C   6.79654338623771      0.70620163676441      0.65618781872162
  O   6.24787420863882     -0.53648992990977      0.61791274715113
  C   3.54706189814074      1.61795413810483     -0.36199554705107
  N   3.33537364378138      2.85408125265220     -0.54959635145323
  H   1.58525530043730     -2.07959591240443     -1.72332395235593
  H   1.89834932450982     -2.42019187539177      1.29705977147554
  H   5.30045300982817     -2.83773422658024      0.47800928257427
  H   7.83286401176064      0.76390066688904      0.94471678004173
  H   4.18593984574516      3.38537912660015     -0.35600598014898
