23
Coordinates from ORCA-job 5881optt
  Br  2.19884505150984     -1.39365917497892      2.09393821609284
  C   3.16062943085373     -0.32893319345862      0.89644647023139
  C   2.94670368273728      0.98679736467970      0.75827473709163
  C   1.95286807758908      1.85616465650691      1.41547478559546
  C   1.18402122299157      2.55776282671878      0.58620109052384
  C   0.96222137986645      4.00834123382672      0.78874325008420
  O   0.27747081195232      4.61023858082143      1.54030038519275
  O   1.79780631903781      4.68458684725643     -0.09701095351675
  C   2.73787000553026      3.98804246299332     -0.84506100167538
  N   2.80017108823953      4.05180155579498     -2.09078319847241
  C   3.80708464779648      3.21230603458808     -0.09432060665621
  N   4.63728191358577      3.89936060509051      0.55881146885706
  C   3.84394829385310      1.70323757404596     -0.14839637009820
  C   4.74317992406233      1.03331849606155     -0.88222162090424
  C   4.83955422180031     -0.41934546920576     -0.79711497270038
  N   5.53737742271959     -1.21869584847232     -1.46835454605270
  O   4.06269631546211     -1.01411855192039      0.20159300551921
  H   2.07930707794385      2.14327019695390      2.45489898799447
  H   1.12555341767775      2.24037080501744     -0.45058329505358
  H   2.06216362128614      4.64232498866839     -2.47562465198339
  H   5.33971355930746      3.30893373425962      1.00813502068973
  H   5.41913626319321      1.53864555951838     -1.55867199889404
  H   6.08739625100401     -0.72175128476612     -2.16267420186528
