22
Coordinates from ORCA-job 5883optt
  Br  2.23075711713040     -0.82840753606423      1.52078222604610
  C   2.72574992291172      0.32686924876860      0.12918066907413
  C   2.41709696460903      1.63389744245956      0.06551195368123
  C   1.63777186467458      2.38335275549959      1.04748728501914
  C   0.37365582434313      2.13406561596928      1.35840831496772
  C   -0.53796586017794      3.16481264972377      1.91158471386193
  O   -1.49623232342988      2.95195669463755      2.57549130386214
  O   -0.24206106458238      4.49436333881340      1.59213116568242
  C   0.44207380135414      4.85669831819257      0.47910924687392
  N   0.47936730779604      4.16575584850618     -0.56222426155924
  C   1.43666849412739      4.46999172138141     -1.54812234712969
  O   1.35938665197415      5.43786030404730     -2.26081111489923
  C   2.54569419067974      3.49928917120131     -1.72369654783695
  C   2.91228598827844      2.34091779927507     -1.12409343894808
  N   4.03836112818102      1.73219753534626     -1.76745247315989
  N   4.29570548453660      0.53076326269822     -1.64142735310031
  N   3.50701928914930     -0.23665636125001     -0.83757330075117
  H   2.09354882609536      3.31956735298796      1.35194072037857
  H   -0.12686120824557      1.22672268898981      1.04497547531804
  H   0.97785596896728      5.79227814814294      0.64473404191988
  H   3.18144996921432      3.78582177025945     -2.55305852022580
  H   3.83967166241311     -1.18311776958602     -0.74187775907485
