24
Coordinates from ORCA-job 5887optt
  Br  7.07922984808411      2.94892799550711     -4.63977013337190
  C   5.50637368887423      3.12779140985135     -3.60615967721234
  C   5.47903155873828      2.82125984207154     -2.29057496456525
  C   4.25490308322304      3.02500726534156     -1.51570992302484
  C   3.08380725626986      3.42056364150684     -2.06277793980499
  C   2.81174759704075      3.72035457272200     -3.45394438413092
  O   1.73527568082501      4.02203205767876     -3.90016412216862
  S   4.20651233698059      3.70840628585087     -4.57269123525682
  C   4.22881743539207      2.86420036680548      0.00178515491538
  C   4.33890257440071      1.42886406691943      0.57365560735473
  N   5.76388050069108      1.29985310341836      0.90489216325971
  C   6.24717247239172      2.45746669489752      0.79900369221866
  C   7.65466214853016      2.76990206735833      0.41283223806773
  O   7.54033893336435      3.04697967748712     -0.99685094874357
  C   6.71988076129776      2.19392543289267     -1.70519887111678
  N   6.93489225664710      0.97856581059797     -1.90957037458392
  O   5.39665526303323      3.49140868679142      0.53239178809999
  H   2.21799158407881      3.56576796406669     -1.42674044453701
  H   3.35735502107071      3.38885805653295      0.38426067808802
  H   4.07555630113967      0.66363590810233     -0.15534165576051
  H   3.71654433864592      1.29790134796398      1.46004949877258
  H   8.30274435830953      1.91757072894277      0.61138589096635
  H   8.05083219148087      3.67707374986137      0.86013116566656
  H   7.79989280949039      0.66568326683154     -1.46689320313221
