20
Coordinates from ORCA-job 5888optt
  Br  0.87964503290013     -0.18009727094701     -0.02166874025972
  C   2.75008929022532     -0.04730315714392     -0.02007499444751
  C   3.56004870859780     -1.12620052301746     -0.01970641220353
  C   5.01217526280049     -1.01132099600604     -0.01912654160094
  C   5.72962914389497      0.13450601131274     -0.01852109241339
  C   5.14183017523545      1.45245820529108     -0.01842327706732
  O   5.72292070787237      2.50243454889998     -0.01784826614771
  S   3.32004397023651      1.57195058218674     -0.01957177610392
  C   5.55073336474871     -2.36824122867061     -0.01933795707357
  C   6.93298923428777     -2.68789119862290     -0.01910285454174
  N   8.05133194240894     -2.95138957876263     -0.01815767280961
  C   4.53500384276599     -3.27462992423737     -0.01991216003674
  C   4.45486146218290     -4.68952059297286     -0.02032828693399
  C   3.21102247470283     -5.20313433148080     -0.02065770764390
  O   2.08242482125102     -4.48738298546995     -0.02064945231113
  N   2.09876496267063     -3.10729104110270     -0.02041643297807
  C   3.25734713958229     -2.56131795838560     -0.02009173185514
  H   6.81325656239702      0.11022182514205     -0.01808917076627
  H   5.32299860913253     -5.33152934614534     -0.02036708744676
  H   2.98388329210627     -6.26032103986739     -0.02094838535903
