21
Coordinates from ORCA-job 5890optt
  Br  1.65866028328741      0.84424478876478      2.20779499501349
  C   3.07981118674636      0.40239867737755      1.05888778457160
  C   3.98466421939263      1.32078925445297      0.67068346721156
  C   5.08037466662047      0.98981768070146     -0.20441544880686
  C   5.32987758737449     -0.22694918790590     -0.72296640409560
  C   4.54252429766836     -1.41859024654035     -0.45817268544538
  O   4.77678409962592     -2.51346767016348     -0.89078170968423
  S   3.09694877862524     -1.25520641916296      0.60624567156181
  N   5.91399515109235      2.08374881631942     -0.61698758009684
  C   5.93195160317179      2.45622971699825     -1.96583571888585
  O   5.36530130030208      1.87005101604342     -2.83723180208212
  C   6.76454841007662      2.75155426331559      0.29876700854140
  N   7.94000705766449      3.14273594045240      0.06107655224380
  C   6.21757335894483      3.05637616475680      1.65692433708548
  N   5.00324100650451      3.07824813036383      1.98691461354598
  C   3.94888584591794      2.75510566755410      1.11839883152331
  O   3.09977364510740      3.53930632777699      0.81929512641240
  H   6.15520753325386     -0.37182798737680     -1.40762820374601
  H   6.50672393979694      3.38055407181204     -2.12099294048009
  H   8.27783989197823      2.88097720808017     -0.86380515564582
  H   6.98030613684801      3.30390378637970      2.39082926125798
