24
Coordinates from ORCA-job 5894optt
  Br  1.12114471794378     -1.42152215362915     -0.49604469033823
  C   2.96995766528138     -1.00644525908107     -0.48896252674414
  C   3.65631195278579     -0.75065871695061      0.64227591273157
  C   4.98682124429330     -0.13794550078338      0.57517720306110
  C   5.79756963927019     -0.35987842675409     -0.46319457834076
  C   5.34372954552827     -1.41488546690114     -1.38920261012459
  S   3.72776352451096     -1.10265773661568     -2.04825496421654
  C   5.94606386104267     -2.60170478766507     -1.41069516353658
  C   5.29307042626304     -3.90002060891470     -1.68711688995931
  N   4.61361123538693     -4.14864635294570     -2.72237874542313
  N   5.60109312956073     -4.78126261263685     -0.62890456685702
  C   4.85248890619510     -4.95511303872938      0.37563485325769
  N   3.54930555520063     -4.52826260532191      0.55607713133326
  C   3.06940135746578     -3.59616556760731      1.23514488053085
  O   3.77607813220285     -2.68541814731926      1.95488650151843
  C   3.24016047842937     -1.38140291581751      1.92650673177519
  N   2.58650276050610     -0.98363925588438      2.90899660156075
  H   5.27859324567312      0.50539347767482      1.39714101918406
  H   6.77314586129845      0.10105372773103     -0.55489668722060
  H   6.90866054967095     -2.67348365193206     -0.91319044136451
  H   4.21384124566857     -5.08617739678680     -2.67196497541625
  H   5.19651665895483     -5.63385250093848      1.15586784614031
  H   1.99132481768359     -3.46968866827389      1.30012534284350
  H   2.28184348918354     -0.02161583391738      2.76697281560496
