24
Coordinates from ORCA-job 5895optt
  Br  3.38793646202434      0.02254693560753     -0.98912703567884
  C   4.79376371439920     -1.17932871079431     -0.60256167411550
  C   4.74964241262230     -2.44993723301925     -0.98409048495983
  C   5.90518073286975     -3.36309319007920     -0.68135101915430
  C   6.41042316474035     -3.04403254066602      0.74052904825954
  C   7.14338175716005     -1.74246269270142      0.65517949607358
  S   6.11222185201349     -0.36736089913085      0.24567796564450
  C   8.45295406776298     -1.53881503803408      0.83922753916974
  C   9.47775000578591     -2.57202143316046      1.11221597244935
  O   10.47936665151286     -2.33888932262397      1.74393256626870
  C   9.34441624336658     -3.95138914653741      0.49932293007347
  N   8.68201037176626     -4.11052798758376     -0.56027130516740
  C   8.49753777055708     -5.37436559579673     -1.12717885575631
  N   9.33553779515435     -6.07828174503721     -1.74508998219188
  S   6.85642338644962     -6.08878432591544     -0.95652465098849
  C   5.55813450559793     -4.82863352022061     -0.77847742679522
  O   4.44826876376811     -5.26318586455950     -0.73113865865148
  H   3.88116372915879     -2.83947185655246     -1.49873524481336
  H   6.71919256328978     -3.17146331896500     -1.38269082044187
  H   7.02392414564182     -3.83500213178291      1.15170387893224
  H   5.54230862197524     -2.92889803281024      1.39261482704069
  H   8.85681664754940     -0.53307367171932      0.79542195300681
  H   9.86860468708909     -4.75786338928814      1.02155083950086
  H   10.25903994774461     -5.64366528862918     -1.74813985770497
