18
Coordinates from ORCA-job 5898optt
  Br  0.77775297544616     -0.22125361222939      0.08760449706157
  C   2.64762181270457     -0.18085123808621      0.08198893523634
  C   3.41467143809029     -1.30734787055849      0.07672797231342
  C   4.87606213796010     -1.25654617643873      0.07488030469351
  C   5.60580826870698     -0.04851807989060      0.07644089609657
  C   4.98673151880429      1.16155705339261      0.08043688639961
  S   3.27522315207463      1.39964940297175      0.08482572042196
  C   5.71860601990457      2.38908756900961      0.08162219836356
  N   6.28215242550410      3.38856889662018      0.08223970900899
  N   5.40835248326163     -2.46072175756557      0.07176919079559
  C   4.35684130903430     -3.33565902645162      0.07113934806241
  C   4.55638810189452     -4.74125415432590      0.06868717886754
  C   4.69083992532574     -5.93155481449968      0.06639364251101
  C   3.11803160498243     -2.69982345169220      0.07375664440546
  C   1.85242298171969     -3.33606876182839      0.07281138763432
  N   0.82996502393018     -3.85918762340072      0.07267338178537
  H   6.68747819501952     -0.09595143902812      0.07439110293592
  H   4.81105062563627     -6.98912491599856      0.06461100340684
