20
Coordinates from ORCA-job 5899optt
  Br  1.00570516747518      0.29116811698350      0.13611206752783
  C   2.86451815556529      0.06002116871617     -0.00445095312925
  C   3.46275839646145     -1.16100316839354     -0.03526574438700
  C   4.92331788165976     -1.29812776362460     -0.14990697437532
  C   5.79985228490147     -0.19029101644028     -0.22807973836895
  C   5.34649441805926      1.08134866843402     -0.20566101036455
  S   3.70267833350169      1.53987084254735     -0.08494941666406
  N   5.29938113470157     -2.56112679372582     -0.17073527606103
  C   4.14041165685780     -3.26075263195989     -0.08623952658796
  C   2.98080535058391     -2.51493661606598      0.00516018462129
  C   1.67182867195986     -3.11584202629109      0.05642984253225
  N   1.45100459302974     -4.35269331271298     -0.20905642689424
  N   2.51838551169777     -5.12227557046026     -0.56867688839780
  S   4.04252282972921     -4.99447047855997      0.09717379899467
  O   4.02460446342597     -5.27856732644386      1.49730210893040
  O   4.91569918838964     -5.72425377897385     -0.76162078024711
  H   6.86148248545735     -0.38633826108684     -0.30659603948578
  H   6.00861494229435      1.93499154483021     -0.26089197794639
  H   0.79276298698422     -2.53268415268537      0.28696046588160
  H   2.26317154726446     -6.08003744408692     -0.77600771557859
