21
Coordinates from ORCA-job 5904optt
  Br  1.45457092308464     -0.91482803417898     -0.61621060044564
  C   3.28783061522814     -0.96144011077926     -0.21465435300031
  C   3.80922792291168     -1.86015127508547      0.65722597317368
  C   5.19871788822864     -1.72480191661374      1.10444725203603
  C   6.09519603096447     -1.26494822391159      0.23832336154778
  C   5.57157216995770     -1.11789818232255     -1.14566984234809
  S   4.27146905955663      0.12545788821681     -1.20690107077589
  N   5.64859836975922     -1.98989929187945     -2.05019469280476
  C   5.96100738631620     -3.27648962494267     -1.58333067578888
  N   5.00169864460774     -3.82450313334550     -0.96899174964396
  C   5.18170722607136     -4.93572656973084     -0.17661521384137
  N   5.84653951304256     -5.96140328843783     -0.43082349622189
  O   4.54122931211951     -4.76393285351053      1.05769088478362
  C   3.35308598101738     -4.09664183435525      1.26127524696358
  N   3.01104611386710     -2.89407605807203      1.14141401161110
  C   2.37308447797133     -5.02426261165072      1.80862692231967
  N   1.61990431188172     -5.77357048244436      2.23708394730937
  H   5.43939199745191     -1.98402545498390      2.12833316713667
  H   7.13477312565756     -1.06452990417833      0.46197224947156
  H   6.95109683554923     -3.70964048644150     -1.73298719528177
  H   5.79725209475513     -6.64368855135225      0.32198587379952
