23
Coordinates from ORCA-job 5905optt
  Br  0.89302744306426      0.54104670006898      0.90415778241589
  C   2.73266402594637      0.39990116124408      0.62660177258734
  C   3.67065183978299      1.01780642413015      1.35108302539230
  C   5.10410906111936      0.87038382411190      1.09501876315318
  C   5.56965430731908     -0.31153272281014      0.37717185815472
  C   4.80209140505372     -1.05473111349016     -0.41266005908174
  S   3.14336020936035     -0.63262386023681     -0.76801555877488
  O   3.11157166462244      0.18416807658948     -1.94535963483509
  O   2.34524012998258     -1.81941271625545     -0.70911767562346
  C   6.01884384378861      1.79794104943973      1.45271479855658
  C   5.81492250924911      3.15056330693943      1.94637107869962
  C   4.65890977332756      3.72277029871715      2.34352040660062
  O   3.46139951742508      3.15426962329729      2.54159021181579
  C   3.29747165815065      1.77873217755510      2.57996864874388
  N   2.81136738896581      1.21011422636728      3.57667298748278
  C   6.96146003675330      4.01248102891429      1.91889781528868
  C   7.92937545246385      4.71871200093078      1.88177976680345
  H   6.61976635671530     -0.56209433204859      0.48028262944767
  H   5.14494699132794     -1.92651003999265     -0.95430937942661
  H   7.05535845960308      1.56494757971112      1.23697108039025
  H   4.62368986020020      4.77955671641195      2.56933442276411
  H   2.61819836160410      1.87150303467386      4.32945967734903
  H   8.78591970417414      5.34900755573121      1.84786558209586
