27
Coordinates from ORCA-job 5908optt
  Br  7.37620054184252     -3.29345662688181     -1.16552298311063
  C   6.73307082140292     -1.74067120210571     -2.05209443051549
  C   6.72425805768340     -1.61363460129347     -3.39837512558166
  C   6.05714039044149     -0.34947542599410     -3.87241803679060
  C   6.77493727005910      0.86936661564311     -3.27562433528969
  C   7.06231539282934      0.63674146513841     -1.82866952080748
  S   8.20988803263359      1.72895835611723     -1.03817441312000
  C   9.69433843687683      0.77141663445055     -1.37552032775869
  O   10.68773998474594      0.92286626606268     -0.74084750782680
  O   9.55840521222276     -0.11824650108369     -2.39544403092206
  C   10.36807964212785     -1.24333352003993     -2.31361933684889
  C   10.77418642863716     -2.01097804395416     -3.32353204817027
  N   10.79280889665850     -1.87140919776162     -4.71094721127333
  C   9.81206449321872     -1.71845786286065     -5.50090210998264
  C   8.39290542069165     -1.58156818251870     -5.15814118859047
  C   7.78722376762499     -2.23629318229378     -4.15915329244008
  C   6.79144009758540     -0.53584131713296     -1.22500285677574
  H   6.02765654180781     -0.28902253812812     -4.95843563628353
  H   5.02530690700408     -0.35228260216160     -3.51976853558387
  H   6.13004592313202      1.74603959444293     -3.38026827430320
  H   7.70985304909361      1.09953636270910     -3.79175832416730
  H   10.64700400539218     -1.50463236768786     -1.30319820402290
  H   11.36006269642331     -2.86327387547419     -2.99477791060994
  H   10.07471428977256     -1.57419930811572     -6.54943571221498
  H   7.89758455179784     -0.75861484985663     -5.66322498916317
  H   8.28956054746408     -3.07909174001793     -3.70146821918761
  H   6.99120860083020     -0.66544234920135     -0.16967543865894
