22
Coordinates from ORCA-job 5918optt
  Br  1.15286988318559      0.09423552694777      0.23636627353895
  C   3.00356117206988      0.02399891927346     -0.00992794159333
  C   3.75466368299717      1.12316952852691     -0.04843569225461
  C   3.66570886754838      2.61086166379764      0.17183113548711
  C   5.21160268681701      2.62232334997042      0.07457425696921
  N   5.14002535038540      1.18325304938516     -0.29516560616114
  S   6.21768700330953     -0.00172316531024      0.11401136069499
  O   7.27857518820891     -0.05283811785325     -0.83749076522720
  O   6.54259129433780      0.08496251116156      1.50323994546830
  C   5.09246194901612     -1.29660354283505     -0.17908109937719
  C   3.71643894891798     -1.22102126908930     -0.16869008264336
  N   3.23390059767166     -2.47586821339821     -0.36368198569753
  N   4.22459571618101     -3.29124856380314     -0.48791765424214
  N   5.35458175454844     -2.60084525255062     -0.37979086843449
  O   3.04734742396093      3.31455626166146     -0.88909164823020
  C   1.91825555848962      3.99249553062579     -0.60204916996454
  O   1.41068304838546      4.07446947880899      0.47056271570002
  H   3.24538027260129      2.91165414193195      1.12851112928824
  H   5.71030376055935      2.78679651074408      1.02883470515022
  H   5.62679728402451      3.24255695141551     -0.71465272118841
  H   6.24604270080102     -3.06547104266336     -0.47000192774861
  H   1.54592585598284      4.46128574325245     -1.51895435953427
