27
Coordinates from ORCA-job 5922optt
  Br  1.08377568360198     -0.10689809742816      0.55920496464615
  C   2.94380553719171     -0.03302763115761      0.36236382929239
  C   3.57944039251122      1.11139556944642      0.09494355403074
  C   3.03576014186681      2.48914722996392     -0.11872758944727
  C   4.27665196394346      3.38225312182899     -0.05942022843112
  N   5.41582769735633      2.47565383458492     -0.29057705049104
  C   5.01622588061279      1.13947192483485     -0.07289604866148
  C   5.70296949666878     -0.00934049251470     -0.02307437978078
  C   7.15039518235073     -0.24685810190097     -0.27930206616650
  C   7.78570196557331      0.86606127545493     -1.11420153618680
  C   7.90643524999616      2.14333843782109     -0.32745174770222
  O   8.95670777754483      2.52620275637083      0.11186571552771
  C   6.67032192529990      3.01984672261151     -0.11769874928204
  N   6.79431680806060      4.25809727667277      0.12978289034277
  O   5.04525967740571     -1.17578080434627      0.25581957544459
  C   3.69487082326595     -1.28108935163264      0.49861804896280
  N   3.17287046856930     -2.38772934481009      0.79649736116207
  H   2.28911816273601      2.75292249235719      0.62843412000727
  H   2.54878308801098      2.53382658180042     -1.09596856984232
  H   4.39580195731675      3.85554690213053      0.91766073950024
  H   4.28709545743909      4.17336882930574     -0.80527518853448
  H   7.23417122956204     -1.19209873329267     -0.81824195868032
  H   7.69322500085372     -0.37593044678023      0.66220988516158
  H   7.17896284366091      1.04064357541861     -2.00590552859674
  H   8.79209227562486      0.57920331160081     -1.41133028951624
  H   7.78512573353631      4.48440903555061      0.20378189715290
  H   3.87228757943969     -3.12563587389080      0.83088835008812
