28
Coordinates from ORCA-job 5923optt
  Br  1.29086064345808      0.12491936422360     -1.35261421113377
  C   3.07211027378276      0.13211527949542     -0.77686314233295
  C   3.76818638608453      1.24256796459057     -0.53372313531389
  C   3.45528757411397      2.71090051667253     -0.59951085009647
  C   4.85866048313641      3.35539328202669     -0.51649072750629
  N   5.68680290847254      2.31544043877536      0.11798396174134
  C   5.13613803318564      1.06826777758738     -0.13538049161281
  C   5.77174541283944     -0.12889435270803     -0.14915047548674
  N   7.16274126760008     -0.29412889167517     -0.10927269260753
  C   7.79613734700994     -0.57270142533243      1.17748720694013
  C   8.10756900008362      0.69173756201641      1.96783670733046
  C   6.88503592947233      1.59612614292492      2.19619980257685
  C   6.59470109089291      2.63185600972658      1.12125780829505
  O   7.05184930276787      3.74925871097038      1.18093789110729
  C   4.94694071598254     -1.32287118660235     -0.31851458938890
  O   5.29217700113540     -2.45709535962901     -0.20828143396087
  O   3.59289820713232     -1.09041255040043     -0.63186626192885
  H   2.83798633872920      3.01119845547277      0.24966994002325
  H   2.92836569884452      2.98624746777546     -1.51131875466876
  H   4.89782491999738      4.25883517339010      0.08549955492792
  H   5.24620534037465      3.58342278594417     -1.51009492781291
  H   7.62315977623644      0.47617956437711     -0.58057276397144
  H   8.71381927220714     -1.13569481602937      1.00144048124431
  H   7.12318235336459     -1.22408826798036      1.73791202654108
  H   8.89213366182563      1.26481962195417      1.46472477163144
  H   8.51050972354627      0.40376700858943      2.94053582359247
  H   7.06156843352470      2.20635330375221      3.08038267208397
  H   6.00040290419899      0.98148042009187      2.37478580978661
