22
Coordinates from ORCA-job 5924optt
  Br  1.03816477790818     -0.02426218591615      0.07938937890573
  C   2.88368578261583      0.10848439099849      0.06312232688962
  C   3.56691731996141      1.26886549606404      0.05740167114956
  C   5.00775157992742      1.25976995104387      0.05003203244520
  C   5.54291668123946      2.66554291281143      0.04909215330837
  N   4.29930830140646      3.42853143080192      0.05299771764217
  C   3.14354382882633      2.67987956155070      0.05752979673083
  N   1.95122902325594      3.13785251179690      0.05984274268373
  C   1.79485347637510      4.52579165548790      0.05716165442139
  O   0.73060963188720      5.07492537499961      0.05715695140744
  N   2.98042556921485      5.28614586010963      0.05464491169850
  C   4.26734018397943      4.81219975214885      0.05222895366252
  O   5.26159264311728      5.49067874165225      0.04921540132365
  N   5.72060776579048      0.19984036879220      0.04619005699760
  N   5.03554254484133     -0.95268802936644      0.04859647955097
  C   3.65481102372176     -1.15298247015840      0.05652239441417
  N   3.08095973938377     -2.28511593454115      0.05785946574148
  H   6.13335260409700      2.89824793267365     -0.83730221998523
  H   6.13819099785820      2.89732386035989      0.93251746095272
  H   2.86910294008500      6.29089102579232      0.05327033021925
  H   5.62256939263288     -1.77230671145085      0.04435164462965
  H   3.73852419187463     -3.06161549565067      0.05217869521068
