23
Coordinates from ORCA-job 5925optt
  Br  1.49068358574796     -0.75552228187300      1.16538735202759
  C   3.24468665484503     -0.30511413948309      0.62576537742091
  C   3.58199969619060      0.99463751212459      0.30058246141197
  C   4.89236756761335      1.18146842709127     -0.13582603624826
  C   5.12770116605507      2.63572663542497     -0.45872832422474
  N   3.84990473754640      3.31352722952726     -0.16749071748655
  C   2.76299156830844      2.95763673473807     -1.04791808040365
  C   2.87175197880238      2.29065737614810      0.27109056409600
  C   1.83008945741310      2.81094860693732      1.25469246815895
  N   1.40090869664608      4.12377983861165      0.75418111700019
  S   1.37193506610988      4.07552472139419     -0.90291115762475
  O   1.61074979739057      5.38990461755757     -1.40247505418950
  O   0.24263395228879      3.31032419277374     -1.32423893461663
  N   5.78420764802007      0.21528471865106     -0.24259229767974
  C   5.34541897223805     -0.98613857959719      0.13062746763303
  N   4.12309194290285     -1.28616477392281      0.55553580023972
  H   5.42430511184893      2.77647366209119     -1.49906995579022
  H   5.91078890484478      3.05258121144035      0.17471634441546
  H   2.90415483501140      2.43818272532843     -1.98773354156990
  H   2.24004360991392      2.92227812683472      2.25716597340349
  H   0.97248345369064      2.14230332228507      1.28680043026138
  H   2.03635594839474      4.86670474218480      1.02947866266289
  H   6.05174564817694     -1.80600462626828      0.08196008110238
