26
Coordinates from ORCA-job 5926optt
  Br  1.10160799890113      0.29988925371139     -0.21091493024438
  C   2.95562895267228      0.06217982936183      0.03631206254656
  C   3.77024379355749      1.16274647436780      0.22554316640460
  C   3.71016492551384      2.67879283675220      0.24955520934705
  C   5.22373206250372      3.12130237440201      0.21087183830586
  N   5.95570610929897      1.87429219418206      0.50753299209477
  C   7.16940374678735      1.25691124639101      0.38845408136603
  C   7.07426392892753     -0.10825299429390      0.29379668791004
  C   8.47115898279856     -0.65342061336384      0.33394783706998
  C   9.28615039571490      0.66065115993301      0.17853974308269
  O   8.39362984372638      1.78787552014058      0.44160403949207
  C   5.66941551871902     -0.41526542948442      0.28312626857763
  N   4.87194266966465     -1.47539537152949      0.10807891846070
  C   3.55601361034834     -1.23202728686055      0.01017912884334
  C   2.71747169471335     -2.38465722984572     -0.16565550803103
  C   2.01061044192906     -3.34106217429487     -0.30970070168364
  C   5.07460322460422      0.83709096091345      0.40273267543131
  H   3.22266542730196      3.03279942463484      1.15894219760035
  H   3.15886286749914      3.08523562267902     -0.59725369261578
  H   5.44436374954400      3.89101440554811      0.94619980636892
  H   5.49986637716089      3.48719450626277     -0.77848488777630
  H   8.70281621781926     -1.34472856619081     -0.47554847700175
  H   8.69099337731461     -1.15761875079863      1.27731375582321
  H   9.64774301100059      0.78078225600872     -0.84240344802444
  H   10.11706270675182      0.74802709146153      0.87286354331444
  H   1.38487836522684     -4.19135674008811     -0.43763230666223
