28
Coordinates from ORCA-job 5929optt
  Br  1.08866298941320     -0.28378604745761      0.47676157648525
  C   2.91152201914491     -0.14317669971273     -0.04262798369285
  C   3.64436882580197     -1.31110362960594     -0.25209784077469
  C   3.64770338337552     -2.73676454487870      0.29252924934736
  C   5.17264698134015     -2.91390078539494      0.63816911961106
  N   5.90141762273972     -1.99991210988350     -0.26361127818491
  C   7.04592213810831     -1.16229172524356      0.23956276448447
  C   6.89387178684561      0.23335272309094     -0.47535537572462
  C   6.85258167890997      1.56729444062860      0.33406217115142
  O   5.51720186928884      2.14964249577777      0.18817856911455
  C   4.71370997357944      1.17810062948835     -0.30608990410183
  N   3.42057237080353      1.08869729494225     -0.02637126795777
  C   5.45863872793668      0.16786190003868     -0.85695861409628
  C   4.95169050652539     -1.07358865701984     -0.63106838804000
  N   2.80967287929982     -3.00847906124255      1.42617188588860
  C   1.65918591418471     -3.75999808812091      1.33194329101483
  N   0.69977324998842     -3.83472999008098      2.15213555637407
  H   3.37584439066568     -3.44882171616186     -0.48999977438412
  H   5.49414620849832     -3.94739890640670      0.53038122574760
  H   5.32283100602290     -2.60311968126542      1.68017582612810
  H   7.99955308940497     -1.63975744381601      0.02845198017076
  H   6.93925462451382     -1.04874716823492      1.32669683890382
  H   7.59033643332489      0.30521085404043     -1.31089437162474
  H   7.56095866202379      2.30102722293521     -0.04002100606551
  H   7.01643301365735      1.41373322836324      1.40257315326293
  H   2.81616769203669     -2.30675090105886      2.15441016952594
  H   1.63257165883528     -4.37854333906949      0.43382104022218
  H   0.82276030373011     -3.20405029465097      2.94507138721437
