26
Coordinates from ORCA-job 5933optt
  Br  0.98526316079327      0.18688222950876      0.18909095754531
  C   2.81011173375518     -0.18801747535458     -0.12888584858088
  C   3.73661545787831      0.77611900099943     -0.26050309179912
  C   5.14107236605792      0.45864775905956     -0.34493892677337
  C   5.90574562629979      1.74991659352800     -0.24665581845960
  N   4.91859710099759      2.77998615573585     -0.55320668296921
  C   5.05956015500750      4.04232873728148      0.17923618390809
  C   4.23152520391015      3.87635276719492      1.46560620051545
  C   3.05984187551205      3.03356663689760      1.00636523091653
  O   2.11846250022869      3.75830956733558      0.20134061987760
  C   2.47229020031014      3.03020763445158     -0.98612012228269
  C   3.58206319480030      2.26495726386470     -0.24597504473680
  C   5.68940059483157     -0.76722160729355     -0.43191981271188
  C   4.93139405817201     -2.00157546302151     -0.43304250277713
  O   5.38130235636440     -3.11063109721787     -0.54927384712519
  S   3.14224713007353     -1.87865333379701     -0.18734901259377
  H   6.74956126959805      1.78890735139779     -0.93730682973372
  H   6.30545129181001      1.83702693719056      0.77566917309495
  H   4.64466339098287      4.85222346883335     -0.42308137174366
  H   6.11149914301398      4.26158109063432      0.35675102377002
  H   3.90772782026703      4.82530394964147      1.89172323140499
  H   4.79257513801566      3.32610461156298      2.22540801573594
  H   2.56471611146704      2.46100816968337      1.79111075777250
  H   2.85843858949220      3.68317984329287     -1.77087193769412
  H   1.64160527351572      2.43493834278394     -1.36241490934501
  H   6.76326925684497     -0.89744913419361     -0.49775563521523
