24
Coordinates from ORCA-job 5935optt
  Br  1.28781079491939      0.19236395597545      0.26255174424724
  C   3.13837405765756      0.00363673841661      0.07262538683554
  C   3.75321981626795     -1.21315839812719      0.05549242904260
  C   3.30699766904846     -2.58088258642286      0.14556455993601
  C   4.41617293247904     -3.33986552867748      0.09347463527524
  N   5.56359051324198     -2.54557964145564     -0.00088124072479
  C   6.79553347683370     -3.06899478546990     -0.44082645326298
  C   7.96412541165123     -2.44386635553807     -0.48373897347441
  C   8.26276056779031     -1.06994005223125     -0.04084594732684
  C   7.38972455719427     -0.05357788041392      0.08709124338746
  C   5.95438523535668     -0.07608352931321     -0.09051093304433
  C   5.17960668151373     -1.21766521167212     -0.03432690190175
  C   5.26217658367444      1.20164115641694     -0.17442339347407
  N   5.71243301457574      2.38765127773222     -0.33641377494309
  N   3.85838990929036      1.12563993374312     -0.03801282341845
  C   9.64265306903134     -0.81096087798709      0.25119641351052
  N   10.75578670855384     -0.62964287308633      0.47042797370790
  H   2.29086762198547     -2.92348255280444      0.23592414224635
  H   4.52172325454363     -4.41223579999921      0.11659164960150
  H   6.71850153020431     -4.09109138607333     -0.78745578663657
  H   8.79993273629420     -3.01182844419955     -0.86987572088950
  H   7.80072214155769      0.89847591803756      0.40491556291935
  H   6.71448385717132      2.40626660698768     -0.48079357582840
  H   3.40102785916328      2.02818031616200     -0.05275021578454
