24
Coordinates from ORCA-job 5938optt
  Br  1.05106447097648      0.17891092001094     -0.66044015824168
  C   2.90526548915352      0.07977557160515     -0.40987374330798
  C   3.58418446281509     -1.08940339706195     -0.37949693054664
  C   3.34754730874339     -2.59681034014802     -0.43941317937406
  C   4.77992021016468     -3.24495066210512     -0.41289446327769
  N   5.67734652488503     -2.10283008938404     -0.16026968177736
  C   6.96692020195333     -1.74993569358938      0.03204981360200
  C   7.03722911040421     -0.34480881855638      0.12388931249169
  C   8.21712315907364      0.46735369907353      0.34068941107604
  O   8.17338266833067      1.67521481432759      0.39439758933175
  C   5.70521966713901      0.14781818206341     -0.02979262176440
  N   5.01190294344942      1.32778006854585     -0.06070703136392
  C   3.62414053582163      1.38733168701829     -0.25650158692928
  O   3.05937252541230      2.45676517278948     -0.29227803491394
  C   4.95001153167863     -0.96422660738894     -0.19217705990740
  C   2.49473968161095     -3.02725760415526      0.74749362032712
  O   2.84746369743774     -3.83591361637726      1.55482621246327
  H   2.79449953167276     -2.86560297085946     -1.34395103021668
  H   5.02407691499343     -3.70893640650538     -1.36672180043376
  H   4.84542674405313     -3.98238067290715      0.38435773824368
  H   7.76630771872045     -2.46909521715716      0.10245422105415
  H   9.17490293898703     -0.07093928411660      0.45611452156698
  H   5.48321455209554      2.21631175770093      0.04454343783848
  H   1.51473741042788     -2.52517049282309      0.81470144405961
