27
Coordinates from ORCA-job 5941optt
  Br  1.07150458215181     -0.26266619651454     -0.77695621773997
  C   2.91216763790730     -0.11954755929617     -0.35103661305172
  C   3.65103399259709     -1.11164791525948      0.17712401007007
  C   5.06723519968665     -0.92349863848761      0.40248358266592
  C   5.63616259980431     -2.23184544583147      0.86313114289149
  N   4.47848812772355     -2.98195965869286      1.32697299059570
  C   4.67888623427214     -4.42955952672396      1.30605861017898
  C   4.41802315810220     -5.01073593980642     -0.07859053955638
  N   3.04289745262487     -4.79848414852219     -0.51327034649915
  C   2.55706161327785     -3.45555655020617     -0.33268607277859
  C   1.97071983390890     -3.01199062277172      0.98788022560677
  C   3.31436251954802     -2.51049382770514      0.58304459023941
  C   5.79093504210768      0.19162197436505      0.19986521602496
  C   5.25815389946981      1.42939815439582     -0.32415895740341
  O   5.87934549130739      2.44193458888518     -0.51625028531199
  S   3.50883661012365      1.45186358021596     -0.75461987563079
  H   6.36967861974143     -2.11361064958839      1.66251444624938
  H   6.14320765830903     -2.70678234674093      0.00724083869927
  H   4.00827783549037     -4.89807281600346      2.03174247208697
  H   5.69933194340585     -4.62760318286155      1.63941565476984
  H   4.62426592561558     -6.08108309825743     -0.09444766140042
  H   5.08681839551038     -4.54362619554470     -0.80739853925346
  H   2.42276237008201     -5.46661201893458     -0.07464812892068
  H   2.12363765819432     -3.00291664078974     -1.21742125665772
  H   1.98255089678240     -3.74526491442549      1.78430737718123
  H   1.12644813712300     -2.34223406708357      0.99291249804652
  H   6.85320656513235      0.21197366218558      0.41479083889777
