25
Coordinates from ORCA-job 5945optt
  Br  0.93487810808308      0.26562898947496      0.25183261398358
  C   2.81542658243404      0.14056556574766      0.09075031812376
  C   3.47328846851110     -1.08946328187657      0.14064433770574
  C   2.76285200475558     -2.39693158211650      0.32463729159135
  C   2.98671781395021     -3.34437676736935     -0.85843612243121
  N   4.30413333384121     -3.94495854916830     -0.78940512764188
  C   4.57841768540567     -5.30169781089825     -0.99585926926317
  N   5.75879743731129     -5.67806772503933     -0.74569696818758
  C   6.46667088694094     -4.48416346843120     -0.29680514151503
  C   5.45347111558284     -3.35851869004375     -0.31443784945016
  N   5.72446694802382     -2.16026587438665      0.02673835820786
  C   4.87000364461352     -1.06877228046108     -0.00323359095016
  C   5.50460504094135      0.17687660574343     -0.13441730202648
  N   4.87221069356747      1.32802135225124     -0.18163995526049
  C   3.54355893862989      1.31714504642498     -0.07748582055390
  C   2.88904460046386      2.60053886552544     -0.14021207658720
  N   2.37030206946116      3.62153673423461     -0.19304594142728
  H   1.69656051815928     -2.23364745437749      0.44950601030706
  H   3.13140828164927     -2.88464486292448      1.23113341947813
  H   2.85548414800455     -2.80737245318068     -1.79947145658255
  H   2.25980258141179     -4.15717937007121     -0.83317076273024
  H   3.78133030667004     -5.94574787365101     -1.35025952197893
  H   7.30050371985937     -4.25625600749479     -0.96344556379636
  H   6.87953942983900     -4.62741566844665      0.70308733646847
  H   6.58552564188963      0.19416656053500     -0.20730721548333
