23
Coordinates from ORCA-job 5954optt
  Br  0.95163477604885     -0.38246298139522      0.32176872644647
  C   2.76809171287446     -0.02691107825286      0.19726173880498
  C   3.27177874432768      1.20681556957508      0.11968812155390
  C   4.72014604490121      1.36941827419790      0.02098249135620
  C   5.09039802425787      2.84037329386789     -0.06174361591077
  N   3.75821030176259      3.41542163069028     -0.00400301829416
  N   3.31888295744701      4.66710845001457     -0.02871682156481
  C   2.00120536514950      4.49968063489730      0.05752323046798
  C   1.05094996297332      5.64393698319934      0.09601911492257
  C   0.30647297182774      5.71467760769000      1.41646880692081
  O   0.02370319347033      6.74533953341200      1.95391446553448
  N   1.59096418642675      3.20525356892964      0.14142482305145
  C   2.73192903118061      2.55162732845220      0.09837134588560
  N   5.57079125104420      0.43254775138482      0.00063556767459
  O   5.06024474232640     -0.84501170170218      0.08144410238113
  C   3.71159528912776     -1.15476347863284      0.17632620556308
  N   3.34445213181578     -2.35318526395024      0.23899345580045
  H   5.59268194097485      3.09115562479174     -0.99504266273977
  H   5.69935481454215      3.16263694316644      0.78199409622389
  H   0.29253691428535      5.49954046092140     -0.68003408463497
  H   1.56332418181830      6.58660268340053     -0.08096799681195
  H   0.01990715527966      4.73842808774727      1.84972494599795
  H   4.13874430613762     -2.99022992240507      0.20796696137091
