23
Coordinates from ORCA-job 5957optt
  Br  0.85140843298136      0.02695199313891     -0.29545075996029
  C   2.71040059511312      0.03923045776784     -0.13988198649649
  C   3.42735202475693     -1.09446156975517     -0.11882601077901
  C   3.26472762979289     -2.61719866894066     -0.18075328432552
  C   4.74663419537916     -3.20309523498190     -0.04407587515033
  N   5.56696121916872     -1.98992153576072      0.03913302846700
  N   6.83939338572041     -1.67394332743897      0.18182216123857
  C   6.85176207091979     -0.31454345323658      0.22376973569252
  C   8.09080677761566      0.43683283822918      0.37480667801453
  O   8.09656334164179      1.64358125379642      0.41589536930663
  C   5.53760327287017      0.21702529382996      0.10581998535107
  N   4.80991832264063      1.38314152886057      0.08615381759051
  C   3.40112040353385      1.38101204827961     -0.03607008657924
  N   2.68818469918401      2.43072395867882     -0.06047025464753
  C   4.79986876734764     -0.90758769076117     -0.00731102742484
  C   2.39559669388454     -3.13592632652425      0.87424339281555
  N   1.74754364646973     -3.56804821875358      1.71326237814531
  H   2.83697644082688     -2.90974869222254     -1.14146857349940
  H   5.01672661322778     -3.79730052151247     -0.91420973162820
  H   4.85059505625931     -3.80401904562644      0.85671288147494
  H   9.01525978422850     -0.15851985098073      0.44605418648925
  H   5.27573102101900      2.27372499500890      0.16950558255020
  H   3.23886560541803      3.28208976890496      0.02133839335476
