29
Coordinates from ORCA-job 5959optt
  Br  1.09636369618088     -0.14831438469076     -0.15872470579427
  C   2.98450165731031     -0.16610546178366     -0.03249528331574
  C   3.67428631247572     -1.34588355454026      0.01551609016146
  C   3.52782781291223     -2.86339071306816      0.04663032998436
  C   5.01324238280657     -3.41236278404051      0.18298563509226
  N   5.81777607672941     -2.17817350249646      0.18803112874753
  N   7.08937177448456     -1.76189385256728      0.31297658318509
  N   7.09737543423041     -0.46206349264993      0.29383742116262
  C   5.79662271862014     -0.00068567552768      0.16040676914216
  C   5.02600035686838     -1.12160239253270      0.09565519755404
  C   5.06625527584895      1.21776113260983      0.11859374433809
  C   5.74799087223399      2.55370523153157      0.15562358801769
  C   6.61475686430836      2.79990133283119     -1.08332100395836
  C   5.78246163024864      2.82034765105499     -2.36860371033531
  C   6.58478276891525      3.12810566835377     -3.54847881372631
  C   7.26262372559217      3.38333455703059     -4.50286964552339
  C   3.68880543579344      1.08229647116484      0.01593256246898
  H   3.06136644782718     -3.24266343828636     -0.86231332223134
  H   2.91790128873180     -3.19010575622933      0.88860386034843
  H   5.29251345915166     -4.04560282870576     -0.65627800771467
  H   5.16089587836296     -3.96221953444799      1.11000558282819
  H   6.38514058757803      2.59763035690188      1.04220042472568
  H   4.99919335979896      3.34314537330910      0.25038505653552
  H   7.37991663062439      2.02483028505924     -1.15768149652133
  H   7.13242002575551      3.75421199622457     -0.97575888783737
  H   4.98355820026568      3.56247055931535     -2.27714553522816
  H   5.29470119923281      1.85248160434551     -2.50954455429617
  H   7.86069682201637      3.60996507842074     -5.35243246836329
  H   3.08865130509517      1.98288007341365     -0.02173653944637
