24
Coordinates from ORCA-job 5961optt
  Br  1.00631915651327     -0.42575195822945      0.44059557448764
  C   2.86033544495341     -0.23306912409701      0.24434456899237
  C   3.62313388320792     -1.28463407200951     -0.06885389308137
  C   3.40053824182144     -2.76889007217328     -0.33393990467598
  C   4.85381020018844     -3.37279669013515     -0.52804723818120
  N   5.71576911735027     -2.19207948132616     -0.39846945251104
  N   7.01277308428529     -1.91026722250536     -0.38673092400430
  N   7.13254822888411     -0.62183258539176     -0.13876464877608
  C   5.89213743324397     -0.09003531381721      0.01245877592196
  S   5.22595124113204      1.47275741437035      0.39667552940088
  C   3.43359040056447      1.13138522017358      0.46830048788885
  N   2.65937285253606      2.09469134783322      0.72548723161384
  C   5.00826588100455     -1.09613805916727     -0.15779629760789
  O   2.61465727753198     -2.93542473253885     -1.48556402488449
  C   1.71982471413039     -4.02813513593545     -1.42402578662896
  C   2.39921225488357     -5.30268071469944     -1.16509243544445
  C   2.97528132170689     -6.32355893543259     -0.92093425167214
  H   2.91358908980980     -3.23527913658180      0.52835198596429
  H   4.93797957912487     -3.81723817107881     -1.51696290703670
  H   5.10300784597075     -4.11034160445983      0.23150607700882
  H   3.14196742441962      2.98013264975441      0.86635094749902
  H   1.21398593844110     -4.05945663619133     -2.38773333645676
  H   0.96744509369529     -3.85343617046720     -0.64674680953085
  H   3.47650429460027     -7.23992081589395     -0.71540926828541
