27
Coordinates from ORCA-job 5967optt
  Br  1.38788545691207     -0.50563853922602      1.58999090846140
  C   2.98925920893857     -0.19996362157633      0.63133187431810
  C   3.94870399965069     -1.16108605002511      0.42810592850472
  C   5.08307925966653     -0.80972340997634     -0.30704369032025
  C   5.22608755889324      0.46552296227440     -0.80079695016140
  N   4.28039456766219      1.39337769046827     -0.61132361925478
  C   3.20160342438640      1.06968325182529      0.07872666868409
  C   5.93044660205985     -2.05967942200366     -0.32684937049192
  O   4.92342220132268     -3.07268682470547     -0.32192732727317
  C   4.17750436567565     -2.62045206755453      0.81703130329425
  C   2.98047467074144     -3.52146432932511      1.01086767924756
  C   2.35344386896900     -3.54739420145874      2.38290889664438
  O   2.88222141507954     -3.18957388390276      3.39733424747218
  C   5.27997381286941     -2.62208394599672      1.91275214671307
  C   6.53159128957046     -2.22446227233016      1.08631538848377
  C   7.60468992393507     -3.28758091872437      1.13412923457535
  O   8.15982451408327     -3.73705287274859      0.17341951737231
  H   6.09612832366716      0.76691243265902     -1.37296069583865
  H   2.44828156032919      1.83828587896884      0.21030786471877
  H   6.62511675123728     -2.20166695813444     -1.14753490279914
  H   3.30713896890425     -4.54981333822135      0.81084556714252
  H   2.20764454047109     -3.29998709988135      0.27186927626049
  H   1.33655909680977     -3.98250114140389      2.40518895991383
  H   5.37482848878177     -3.63020560466375      2.31984425922229
  H   5.05536634792223     -1.94933058439594      2.73431462431521
  H   6.98045026713522     -1.29910853802809      1.45691227602982
  H   7.86887951432594     -3.63632659191308      2.15223993476520
