23
Coordinates from ORCA-job 5968optt
  Br  1.30016865335701      0.10399536261760      0.89419145023939
  C   3.11616003195831     -0.07698718151789      0.43393327865886
  C   3.68561671145404     -1.20791233233167     -0.12892463984519
  C   5.04427581930737     -1.17062086859227     -0.45511917923560
  C   5.77121628826656     -0.02689484708002     -0.17678540147891
  N   5.22870223006814      1.05342315998950      0.37691095421551
  C   3.93945401538299      1.02942829195288      0.66286136147597
  C   5.68247815582341     -2.38443560801428     -1.06666619520951
  O   7.02655739582657     -2.68326841869261     -0.64101408085178
  C   6.64745353886145     -4.00456769396332     -0.18012935403669
  C   7.20533226478737     -5.08606720869162     -0.98053283270944
  C   7.64835001182711     -5.98374201292968     -1.63471879827631
  C   5.19718173642808     -3.65435461954936     -0.44498136693419
  C   3.96917376611581     -3.94659518044516     -0.08212602609152
  S   2.78092430375069     -2.71774816840281     -0.54739297596058
  O   1.63281270441541     -2.88322297766631      0.28683631566174
  O   2.65808083115615     -2.69488423023235     -1.97629517646942
  H   6.83197759065806      0.00591477447175     -0.39744173369303
  H   3.51129533327459      1.92378157532237      1.10018209558891
  H   5.60686370889786     -2.36017759420594     -2.15862803539180
  H   6.89151041301807     -4.13901135733684      0.87568451466010
  H   8.04701422887281     -6.78051247393054     -2.21719120569048
  H   3.61140026649186     -4.77954039077135      0.50634703137398
