27
Coordinates from ORCA-job 5972optt
  Br  5.00426803514851     -4.08632326302009      1.64003244729586
  C   5.61972981649303     -2.31040665684458      1.84982378955928
  C   4.74404080263674     -1.30393862165066      1.92764151601754
  C   5.19170004888519      0.13469672646667      1.95858669141740
  C   6.53424972109659      0.36098842622438      2.65742947206147
  N   7.39369665031719     -0.80212777925180      2.53474806501441
  C   6.93564148506151     -2.10574624850976      2.46597374149969
  C   7.49083849423089     -3.05650215352671      3.25560620023946
  C   7.80212631210127     -2.66347534035175      4.65840785826803
  N   6.85976289297670     -2.27151355844026      5.42565783030401
  C   5.54343363113577     -2.36081747435914      4.93697774304811
  C   4.67257206434760     -1.35641144938077      4.81853392186873
  S   3.07545947985501     -1.60652213089085      4.09018598352003
  C   3.32346483225640     -1.52891300854553      2.28585195201124
  N   2.37772241123863     -1.62592873671439      1.46788765111455
  C   7.20745114789160      1.54274045800014      1.98199206357129
  O   7.25276891929485      2.64070475525426      2.45208933567039
  H   4.43665360953720      0.75394208005909      2.44281387267483
  H   5.24482838958063      0.46814116259952      0.91625366534845
  H   6.37558768987642      0.62286942672532      3.70599002190760
  H   8.24661543554857     -0.72531124224955      3.06989888718505
  H   7.30892835756050     -4.10463743135093      3.06088667699448
  H   8.80055964250464     -2.72175631560184      5.08905594677457
  H   5.23215922210327     -3.35668862354746      4.62737206663080
  H   4.91702280517040     -0.35340436631954      5.14482293845503
  H   1.47350075884162     -1.76318744692000      1.92209085598566
  H   7.63821734430915      1.30952881214626      0.98738880556197
