27
Coordinates from ORCA-job 5974optt
  Br  3.60950926154183     -5.38874586816987      0.41603445172396
  C   4.76584271295523     -4.00632304253386     -0.14067457739559
  C   4.30401847795886     -3.00601760028584     -0.92474452996447
  C   5.14643564631369     -1.77537313280574     -1.14930465253208
  C   6.39809002104961     -1.83682741083400     -0.28992561280355
  N   6.97886885612993     -3.15740849551697     -0.39413601120679
  C   6.21783535046226     -4.26129863026120     -0.21110963276900
  C   6.59184016898281     -5.51322405846902     -0.63423121199431
  C   7.04274403070101     -5.49863636856923     -2.05697580844887
  N   8.15744506804572     -5.35230644914848     -2.62473509261697
  N   5.80911134323713     -5.57570799020666     -2.76771354479722
  C   5.24703681105155     -4.51284192635557     -3.10059033804547
  O   3.93506465363251     -4.52515863732601     -3.53277148998929
  C   3.00132587513915     -3.79696477023809     -2.89312634208425
  C   3.06471802733664     -3.12057518356299     -1.72888158483500
  C   1.82189312910099     -2.44772043362961     -1.28233052557292
  O   0.77927444671210     -2.43513402402010     -1.88300486738651
  H   4.54569678308479     -0.89570415950495     -0.89355679975132
  H   5.39964696839795     -1.66950119034791     -2.20869827732503
  H   7.13700949057940     -1.10187705607545     -0.59965890550779
  H   6.13520231968211     -1.63680538334119      0.75328053669536
  H   7.92080144216018     -3.28214007924748     -0.72793906513548
  H   5.90336502350711     -6.31397897520321     -0.41637763916754
  H   8.90063574357760     -5.38825405723006     -1.92919312590443
  H   5.70837975079529     -3.52621234621408     -3.12492065703254
  H   2.06254383587644     -3.81195335974943     -3.43357029382831
  H   1.91366476198801     -1.94130937115294     -0.30214440232456
