24
Coordinates from ORCA-job 5979optt
  Br  4.01486298829266     -2.90975288339266     -0.04153600947718
  C   3.27796147977469      0.14809243921904      0.36943026708984
  C   3.67224991725865      1.02471603063686     -0.59213903312391
  C   5.06777736863692      1.08306228170014     -0.89283898063922
  C   5.94328115952576      0.38162622403211     -0.13090840217646
  N   5.51652083764355     -0.40889471286400      0.89675690722825
  C   4.20013347755272     -0.68111933664749      1.04020266487466
  C   3.46462043803403     -1.17601882385247      2.22975869628888
  N   2.24770373782994     -0.81089146344215      2.24822346766291
  C   1.95335793895487     -0.06549897704111      1.02213743259260
  C   1.29352043596979      1.26068204479787      1.32020176332937
  N   0.97191322109649      1.73330637599811      2.42497570145373
  O   0.96139748316438      2.01208417130349      0.20057956327779
  C   1.63028750927258      2.14972346304035     -0.94452911511198
  C   0.80674951984421      2.90077205267887     -1.97353212605165
  O   -0.34197420359228      3.17325497675213     -1.81663441796774
  N   2.79773456342971      1.81589827130167     -1.31852782294809
  H   5.41919750435249      1.71952359655197     -1.69029687240724
  H   7.01222815523094      0.42800294381249     -0.27410378424315
  H   6.18658290474051     -0.99232128479638      1.37728051841558
  H   3.90590946133225     -1.78833430700552      3.00656096034698
  H   1.28838292940969     -0.67900062574886      0.40018622864096
  H   1.18763123221709      1.06160944947082      3.16080613592008
  H   1.38296994002832      3.14347809349471     -2.88005374297503
