25
Coordinates from ORCA-job 5980optt
  Br  3.71015314956066      0.24022833178489     -2.48790941576378
  C   4.24358539531090      1.33343904173633     -1.06509123253670
  C   3.61599405988708      2.41035952336930     -0.60440667670613
  C   4.38835952362163      3.35486830842183      0.27793647868289
  C   5.85868745175534      3.32198699698426     -0.15560426512260
  N   6.39580687311361      1.95019876426847     -0.13715074891810
  C   5.39473191857094      0.98023925414398     -0.21217154806157
  C   5.33322826627066     -0.08646085474795      0.60329529602964
  N   4.37868376108849     -1.09164698986951      0.69650349855374
  C   3.12152756875331     -1.11198506605228      0.57426245634825
  C   2.00498280785248     -0.14590306213404      0.15285155282599
  O   1.22116477164458     -0.57408482564026     -0.65245483218702
  N   1.69126050555651      1.03366145367645      0.83749873317676
  C   1.63402436377441      2.20376397272821      0.39501794119411
  O   2.26839453418381      2.66107865030604     -0.75636833007678
  C   0.94000676367745      3.25245344808450      1.08910267402303
  C   0.36527160617230      4.13902326083942      1.65097401343364
  H   3.97033046658010      4.35527726942119      0.15102531890096
  H   4.28326531920392      3.08182405651645      1.33459877037768
  H   6.47341286065490      3.93998876442442      0.49659509534758
  H   5.93472979655783      3.72545979648048     -1.16655517524552
  H   7.00999049802429      1.78388838728375      0.64878927883241
  H   6.19243664850512     -0.27614142525540      1.24067930975944
  H   2.65318614140623     -2.09078981959016      0.69163797418880
  H   -0.15021505172662      4.92127276281958      2.15694383294329
