24
Coordinates from ORCA-job 5983optt
  Br  1.12806026676028     -0.25616751685488     -0.01137945167435
  C   3.00033803235148     -0.13434400249958      0.05715035266623
  C   3.66093309569875      1.08308747276043      0.05611396721698
  C   5.03925045636705      1.08068976732938      0.07220481316696
  C   5.75805608817182     -0.10264642646778      0.10153348822160
  N   5.13492480990486     -1.27036857338850      0.11976683255394
  C   3.80011173130064     -1.28327803904932      0.09814688310838
  C   3.18596816526579     -2.59038550220765      0.12160105030382
  N   2.69326546712758     -3.62445664485612      0.14256417386062
  C   5.50957482247809      2.48740853874789      0.04562356044498
  O   6.61941144464777      2.91318963177087      0.04934297422133
  O   4.40193149142206      3.26967143787052      0.00927688246428
  C   3.17794849733543      2.50676154787807      0.04144800014292
  C   2.35559908209497      2.95810135380390      1.25352530069205
  C   1.55810538707721      4.10792891371831      0.64971065328476
  O   1.18461998161624      3.61411206144485     -0.62525282648554
  C   2.29221057269706      2.92597421460550     -1.16045751827128
  H   6.84130068146210     -0.10861714015801      0.11179692090888
  H   3.00558554130865      3.23582658226478      2.08077613377770
  H   1.67837795200884      2.16318544755887      1.56356708830120
  H   2.18061783548226      5.00442366015263      0.55261788407444
  H   0.65191788468768      4.35425512307277      1.19767586187198
  H   2.89097787344421      3.57418136121854     -1.80627007929220
  H   1.92691283928917      2.07446673128450     -1.73308294555969
