24
Coordinates from ORCA-job 5987optt
  Br  4.58890627748299     -7.23083642285486     -0.58818168759390
  C   4.11093438505577     -6.36797651757623     -2.19618770574980
  C   3.20566633115211     -5.32036229857283     -2.24334892526908
  C   2.89054828031720     -4.81197820543030     -3.49593177213700
  C   3.47020237162593     -5.32769358687129     -4.64554767954002
  N   4.35700417405888     -6.31252318054501     -4.58733381234008
  C   4.66245027680847     -6.81662139043701     -3.39402677970689
  C   1.90543252708603     -3.71406706282345     -3.37279463546016
  O   1.31596837637197     -3.15347338597355     -4.24677814538842
  C   1.82323894191178     -3.40572514383171     -1.86332394177603
  C   0.50979165778233     -2.97887255673858     -1.41619546871260
  N   -0.52528762198077     -2.65362955656647     -1.04966768821943
  C   2.43159440448278     -4.64305103334862     -1.12793774705828
  C   1.39397245053377     -5.60553099234389     -0.44588185914828
  N   1.71623013975572     -5.61921402253335      0.97617130599746
  C   2.74230388162074     -4.90034417791757      1.13508358140036
  N   3.22835727163422     -4.23135259526592      0.01889654064062
  H   3.21658486615849     -4.93207467088387     -5.62214493295687
  H   5.37879868073046     -7.63008281375137     -3.37690394085713
  H   2.51421013573669     -2.57120757087181     -1.70383810745573
  H   1.47271015412928     -6.61918244531604     -0.84391568929104
  H   0.37063380084748     -5.26221036620081     -0.59880410142705
  H   3.23252020364767     -4.75120973114602      2.08998616168005
  H   4.22322803304999     -4.09678027219940     -0.08539296963068
