25
Coordinates from ORCA-job 5990optt
  Br  1.38370580935476      0.92525830890260     -0.01947836223320
  C   3.19939680687153      0.42799591852797     -0.17933970927231
  C   3.62607278026334     -0.89348301064944     -0.10649559896534
  C   5.00821632607368     -1.09629889727090     -0.11799132233091
  C   5.86851652121924     -0.01344186410264     -0.26178616260887
  N   5.44234468501070      1.23486420946956     -0.38930521385770
  C   4.13375648102153      1.44629790252389     -0.33342254964049
  C   5.60734796768605     -2.43708860893107      0.15228041966010
  O   6.76402795694826     -2.60200553499909      0.39649766823540
  O   4.74937513243068     -3.47796419164346      0.18931625617948
  C   3.50288916667568     -3.31862226392621     -0.46952233144819
  C   2.73240813061382     -2.09588352998709      0.03909836912543
  C   2.17494405255616     -2.28656929642550      1.45371429013862
  C   0.81323599845810     -2.93220349371365      1.19062750719284
  O   0.42317541442759     -2.51591174806270     -0.12302692832014
  C   1.46962451267416     -2.06691134737536     -0.83398554581219
  O   1.41246151607676     -1.78303775369351     -1.98778964190524
  H   6.93820827093700     -0.18432234448380     -0.26373228845410
  H   3.79619576377405      2.47342478588920     -0.40936983163117
  H   2.94881176812487     -4.23716174294179     -0.27952509375189
  H   3.66068467073159     -3.21850585090691     -1.54589523360356
  H   2.05110100209129     -1.31976227107820      1.93991389969970
  H   2.82183776461085     -2.90802167330922      2.07117251263691
  H   0.04310108779580     -2.60526791677310      1.88427139010683
  H   0.86156041357243     -4.02237778503957      1.19977350085998
