23
Coordinates from ORCA-job 5991optt
  Br  1.70699513400869     -0.37073914398114     -0.02098403202148
  C   2.34907068425730      1.43885605736239     -0.38587899403005
  C   3.36841731971035      1.55174862419111     -1.48073647257118
  C   4.72115050863976      1.13087389764061     -1.25913408403836
  C   5.02944464159058      1.06959883024301      0.06113471407149
  N   4.19582418924963      1.44319530821597      1.07153426615052
  C   2.91344231747465      2.02181886983340      0.87704648181491
  C   2.50321769043936      2.91739503622700      1.79046655483309
  S   1.17706728146355      3.96735803593547      2.27295192753709
  C   -0.07508629777106      4.28474955810074      1.01284730068569
  O   -0.93787225070492      5.06821198268007      1.25285186522622
  C   0.07226333366454      3.39741905216443     -0.17457756141761
  N   1.15698825177182      3.44874874094637     -0.80702552180314
  C   1.50779459305853      2.21285453193892     -1.43875008167714
  N   2.68625118013711      2.22723313275108     -2.33702797540487
  C   6.36975202453463      0.60280037761024      0.50173215341886
  O   6.67810074186584      0.54163026810502      1.66025599708383
  H   5.44584853513294      0.91573848452625     -2.02955145308974
  H   4.59116157695240      1.39000903248876      2.00034340984574
  H   3.24153357345758      3.08381250067858      2.57267649715529
  H   -0.67871000453668      2.60491582864819     -0.28549855409377
  H   0.65773763822118      1.65966871023605     -1.84805831509697
  H   7.05560733738216      0.31110228345744     -0.30961812257840
