23
Coordinates from ORCA-job 5997optt
  Br  4.32699675191950     -1.68316831458841      2.34330659839100
  C   4.26511129290121     -0.54351141348915      0.85920146361622
  C   4.95612584072568      0.62208916324972      0.77179157303854
  C   4.93266593908262      1.39564490643896     -0.45393748528163
  C   4.07826167964866      0.98312299588718     -1.42628431197249
  N   3.34041716151355     -0.13846391181987     -1.30179737872389
  C   3.41906643770077     -1.03989239096207     -0.23753312521318
  N   2.80953784515618     -2.15299814763205     -0.19034262356937
  C   5.80989354749980      2.53149230345875     -0.75316558550333
  C   6.98655912657069      2.84252057496545     -0.17899811795773
  C   7.70909973453601      2.21108322519580      0.93783353379763
  O   8.88061611168889      2.44840661584184      1.11482090529214
  N   7.03381884496926      1.43329842106923      1.87142034164279
  C   5.68498311272272      1.11803875609251      1.99524081865154
  O   5.16183566512119      1.13742515738401      3.07406552142496
  C   5.41911146249385      3.36388687322978     -1.85958375763436
  C   5.10318742247007      4.06725275260799     -2.77725109816034
  H   3.96833133699192      1.52414073298775     -2.35508480513211
  H   2.72932811901313     -0.39731871697861     -2.06145022042496
  H   2.25844099207064     -2.33222055869306     -1.02672249166502
  H   7.55069853167112      3.66752807738775     -0.59094237909618
  H   7.52743656709433      1.39135519927539      2.75671285871269
  H   4.83247647643816      4.70128769909108     -3.58830023423291
