21
Coordinates from ORCA-job 5998optt
  Br  1.01938441892789     -0.09744929138534      0.13052787496260
  C   2.89008496131342     -0.06240010246654      0.06706372866374
  C   3.58087300257322      1.09600239171225      0.03945536144332
  C   5.02734210553443      1.09318395603937      0.00171761316938
  C   5.68246087157117     -0.07484172744771     -0.03991115155129
  N   4.97410698612550     -1.24150169439193     -0.02306833118638
  C   3.57721643994366     -1.35737392592322      0.03619659131349
  N   2.94566143621540     -2.46205524045767      0.05402830364717
  C   5.57021096155548      2.51667742611649     -0.00451129291426
  C   6.44675835256963      2.79336071946218     -1.14715283448590
  N   7.14591026276483      2.99330829562336     -2.03200706168089
  C   4.27806930936245      3.30036337586963     -0.02691796454017
  C   3.16699980197589      2.49666251109120      0.02076810412085
  C   1.98798332096807      3.29040120045863      0.01499077845595
  N   2.19614471513083      4.58252238567359     -0.03392743636391
  S   3.80720184140465      4.91978793215664     -0.07633324102899
  H   6.75854617327801     -0.16726545535264     -0.09844234163928
  H   5.48343612479425     -2.10987900865104     -0.06816899560445
  H   3.56430413840868     -3.26855858668143      0.01946918569252
  H   6.13712009941943      2.73518193713974      0.90542534079739
  H   0.97318467616305      2.92087290141441      0.04279776872911
