24
Coordinates from ORCA-job 5999optt
  Br  0.99251947058552     -0.08208461503566     -0.07152030756507
  C   2.86818348076120     -0.08695129780663     -0.06996100945659
  C   3.58771095398873     -1.23315867594052     -0.06930995297907
  C   5.03720822354462     -1.20459291908121     -0.06852455886409
  C   5.66352902960618     -0.00850315823967     -0.06826599688634
  N   4.91381222591488      1.13369550599637     -0.06869057428427
  C   3.52042523330400      1.22094915840403     -0.06948061784922
  N   2.85734066599596      2.31437008323753     -0.06975693647537
  C   5.54354305158131     -2.56841773045495     -0.06822666034727
  C   6.93822254473339     -2.94460125671491     -0.06762345030795
  O   7.84378650684635     -2.13527140783747     -0.06712177974394
  C   4.46642018838198     -3.41256611708854     -0.06866762379209
  N   4.45507934241656     -4.79067477057675     -0.06851040250457
  C   3.30312916335528     -5.35344364845133     -0.06874390159066
  N   2.10720732610244     -4.69052564876251     -0.06911653708695
  C   2.05093150377375     -3.31586001532705     -0.06943931056591
  C   3.21866778962078     -2.64547276901312     -0.06926485689650
  H   6.73766227483881      0.10029883399361     -0.06771933371150
  H   5.40203440969829      2.01569263350235     -0.06840203812625
  H   3.46264043701338      3.13147204933112     -0.06927107551025
  H   7.14327869025215     -4.02793733475804     -0.06763735965618
  H   3.23048031056088     -6.43542700144380     -0.06862318383622
  H   1.25414294686034     -5.22418198844921     -0.06933172001765
  H   1.07204423026318     -2.86280790948361     -0.06979081194607
