15
Coordinates from ORCA-job 59optt
  C   12.04822818641716     11.40261562862797     10.00079762008905
  C   13.48654064744621     11.71983836479318     10.00091171121625
  C   14.00074093438917     12.99115842231631     10.00138922474930
  C   15.40693510360594     12.99117967996963     10.00130235314039
  C   15.92119487856791     11.71988916422526     10.00074361573818
  C   17.35951838861015     11.40271656195326     10.00044065503644
  H   13.36943770859914     13.86761816863584     10.00173549850533
  H   16.03820418357027     13.86766478998277     10.00156988327375
  H   10.85283612577790      9.95436453210687     10.00117279352457
  H   18.55495938308724      9.95451147362330     10.00151340142815
  O   11.17886903193487     12.22788321309923     10.00161912225846
  O   11.81279742439009     10.07872877508771     10.00082287261175
  O   18.22885563730222     12.22800818843205     10.00155767475006
  O   17.59499340996593     10.07883757599941     10.00094041464112
  S   14.70388895633574     10.52198546114716     10.00048315903714
