25
Coordinates from ORCA-job 6000optt
  Br  1.21396349818585     -0.74397042898618     -0.53953148628282
  C   2.81391343979241     -0.04350491648110      0.13313638768012
  C   2.95516766749981      0.43778796714060      1.41118588583483
  C   4.34101423865988      0.59849324884482      1.87762387817993
  C   5.29314604587528      0.85983932768033      0.97958219018315
  N   4.93082306820665      1.02670161409786     -0.35009035254480
  C   3.61168746296407      0.84333073291954     -0.72103932986725
  N   2.91544343861364      1.63411330141281     -1.46245033965960
  C   3.28330711611885      2.95235600115434     -1.63050591700693
  C   2.63270146766183      4.01292635833419     -1.10702342372522
  O   1.43921608555444      4.04407629035051     -0.39851965759180
  C   1.29168858719875      3.63268049849970      0.93433957716608
  N   1.11225930851379      4.43420053871080      1.88099052409391
  C   1.36205794718804      2.17275152804039      1.01651938579125
  C   2.04990681819041      1.47582083525178      1.93772456917845
  C   3.15684479329303      5.37258674733563     -1.37390564530636
  O   4.13857680352264      5.62359955791808     -2.02347844780281
  H   4.55616477783176      0.52828420536466      2.93465962632966
  H   6.33956748983531      0.98341720950447      1.21528522576857
  H   5.45895465888117      1.68841507562979     -0.89911820294920
  H   4.15057298559339      3.23088134084462     -2.22999642202584
  H   1.16344386940069      5.40024277125879      1.55923935262228
  H   1.10908978236691      1.72214293159504      0.06960461816700
  H   2.34415480754922      1.93696109916180      2.87408482173829
  H   2.55433384150216      6.17386616441670     -0.90631681797090
