24
Coordinates from ORCA-job 6002optt
  Br  3.58301406923585     -0.47098613509044      2.71768964224885
  C   4.47698983521675     -0.27440905358657      1.07612662418109
  C   5.59050784091013      0.48047459369663      0.93070964301735
  C   6.25641037025823      0.51307518705910     -0.34779701421394
  C   6.08675637042665     -0.56136057090939     -1.14915327947978
  N   4.97874974262421     -1.34702789196758     -0.98162252052845
  C   3.98077612288103     -1.11322224647053     -0.02607148314759
  N   2.82477171609188     -1.63959853891265     -0.02909918042571
  C   7.18372126736737     -1.17863027097874     -1.96950030819470
  N   8.39440638812133     -1.32535781846588     -1.60538887194190
  C   8.79382941326353     -0.77519783965154     -0.36798624039529
  C   9.72569902841212      0.21804462135621     -0.23059139459210
  N   9.42127965739834      0.81337473892885      0.97357869832712
  C   8.33882115488953      0.16142613965212      1.47995501618116
  N   8.02052278986998     -0.87433316567286      0.75523356735005
  N   7.54410866328863      0.80575002788323      2.43655456411316
  C   6.31073337624074      0.97962257205936      2.15257094910969
  H   7.12693719228602      1.13784386822290     -0.48015428015136
  H   4.86932364828563     -2.17048140171099     -1.55449422356241
  H   2.66481322113716     -2.21596080325454     -0.85230437620028
  H   6.90439479644454     -1.61116227827728     -2.93083857598956
  H   10.49016478061224      0.58111587808020     -0.89283710573143
  H   9.83902146056425      1.63736782273406      1.37220085313554
  H   5.70924709417381      1.48863256527632      2.90121929689051
