24
Coordinates from ORCA-job 6007optt
  Br  1.58478074567944      1.47287813353636     -2.76290262938179
  C   2.19996816072097      0.94392540954260     -1.05761967094023
  C   3.19809940906532      1.66446321985163     -0.39087404121826
  C   3.78695802639425      1.05749009428351      0.71150867121813
  C   3.20363172858204     -0.10910525082837      1.19745492990624
  N   1.98724466076584     -0.48760728959606      0.81506835337592
  C   1.45212817207265      0.09462536953549     -0.24424395866758
  N   0.01007833091224      0.20192824260366     -0.28816965486639
  C   -0.27135495047089      1.42091401513025      0.41813423068264
  N   -0.30911887176359      1.57763253178318      1.65635201624591
  O   -0.39025020242892      2.48175285937946     -0.44651144494241
  C   -0.28619922749875      3.79279390201564     -0.00555994268016
  C   0.87318171237567      4.38103830429552      0.30772872104941
  C   2.05126087895171      3.49990681725727      0.42288261354417
  C   2.92118386472119      3.13648622984130     -0.52381795928223
  C   -1.52730782613717      4.51646305120424     -0.03530056282231
  N   -2.51566277816568      5.09716624217869     -0.06529203567903
  H   4.57613589194487      1.55477860271863      1.25862494006390
  H   3.64956279271778     -0.66231019069338      2.01482819153280
  H   -0.32166389193396      0.27943115281547     -1.24475734952698
  H   -0.19778991252337      0.68178377930140      2.12557548367706
  H   0.86648326400332      5.43348973359629      0.56282122326880
  H   1.96641605114758      2.83815729606369      1.28295206204951
  H   3.03723397086746      3.66291774418351     -1.46088218660711
