22
Coordinates from ORCA-job 6008optt
  Br  1.26970438699568      1.09813686210582      0.74184421177029
  C   3.03873409059224      0.74123723704197      0.25443572854020
  C   3.99013786134161      1.69279158183376      0.31240690737131
  C   5.35658593561290      1.39470761989654     -0.06958290451313
  C   5.65535914684978      0.12922701903539     -0.42902914607600
  N   4.70048179542493     -0.83194961799511     -0.45017873821453
  C   3.33896911613994     -0.63446243547037     -0.17278771785062
  N   2.44731168626828     -1.53291738448119     -0.25461106322497
  C   6.35119540221358      2.48055569344861     -0.16298466792307
  N   7.53238672104222      2.56768031447643      0.24421825884306
  O   5.76676027963417      3.54133752478003     -0.83861795240625
  C   5.71349370155197      4.76788420877177     -0.21450432785485
  N   4.60585317982978      5.20631991826114      0.17272028137590
  C   3.53306248143969      4.28743870424902      0.05602295475080
  O   2.55409417338966      4.45849298010667     -0.59854124884186
  C   3.71812369284870      3.04236744821784      0.95063050371807
  O   3.71169799030410      3.15593445022379      2.14173679432894
  H   6.64619353096857     -0.16736971699533     -0.74600387615077
  H   4.96102940337564     -1.76041803201070     -0.74510653942100
  H   2.81706820258777     -2.43346874444077     -0.55051425875999
  H   7.80147700068132      1.74131438055071      0.77234225273751
  H   6.65128022090742      5.30315998839395     -0.11789545219904
