29
Coordinates from ORCA-job 6011optt
  Br  4.76809751348549     -1.82625910542035      2.85544471064333
  C   5.11682057966436     -1.02719675132422      1.19242035343249
  C   5.93260830675785      0.04059333215677      1.07695079580913
  C   6.29057783583221      0.55154550076368     -0.21508090807764
  C   6.03603311402208     -0.23499962116871     -1.27981546059684
  N   5.22590917347455     -1.32993576430549     -1.15637621754635
  C   4.53970985339352     -1.68556759324890      0.01423410692646
  N   3.59978718373501     -2.53647096972841      0.08625612789637
  C   7.02058852558072     -0.15658005260832     -2.41014884589788
  O   7.14406934801284      0.81917593267765     -3.09909066827926
  C   7.99461397977036     -1.32421987398299     -2.45338552914892
  C   9.08538756518823     -1.19814401433217     -1.36169669111619
  C   8.65086831172009     -1.44675503592413      0.10001739636040
  N   8.78911586643621     -0.23897090483564      0.91455410976563
  C   8.16119346316719     -0.24678929918489      2.23380134884554
  C   6.81171422876792      0.48348559602189      2.22126469583691
  O   6.51321341173188      1.32139605913277      3.02121209977493
  H   6.98081673715998      1.37409285621806     -0.30951089398472
  H   5.00343149655877     -1.86483753493893     -1.98291090337009
  H   3.34271684065236     -2.91341871252989     -0.82325218976934
  H   8.46692655068567     -1.30908285167063     -3.43498922609656
  H   7.46996598190673     -2.27423459452601     -2.32898432044715
  H   9.52608984779561     -0.20093637001544     -1.43194718175750
  H   9.87175417212398     -1.90555456611914     -1.62702265612852
  H   9.23345983473660     -2.27699213427534      0.51958307109843
  H   7.60879420134511     -1.76727415354815      0.14067954922635
  H   9.76291366936270      0.01772344451653      0.99628559796932
  H   8.78701934184157      0.27287454163990      2.95804907766371
  H   7.97980306509028     -1.26366735943950      2.60945865096796
