23
Coordinates from ORCA-job 6013optt
  Br  1.54530502348722      0.74081568563147      1.87847385877726
  C   3.12603953403612      1.04937530953383      0.96106180593608
  C   3.21109659744079      1.26345789597472     -0.40169609330970
  C   4.52532248987453      1.11218593849189     -1.00348290612104
  C   5.61228553154555      1.12837052476254     -0.20798621594527
  N   5.47364480859574      1.43228461431244      1.12664903838877
  C   4.21018705269195      1.81475736748939      1.57685883894421
  N   4.07813091568223      2.92025491290492      2.19911504511911
  C   2.96368199010320      3.53190611587103      2.75797813177983
  O   2.47938845699747      3.24302699282479      3.80585633508482
  O   2.51622077671663      4.70091218056612      2.15885482759525
  C   2.68246781945771      5.11027341227849      0.86051806897511
  C   2.21696135451523      4.39580192098731     -0.17357286488951
  O   2.45641277122788      4.61726821768510     -1.50800318820800
  C   2.76460552085955      3.32365814448585     -2.04728528384264
  C   2.38099583093276      2.39962323613906     -0.89162506655217
  N   1.86668879571477      3.08817537438382      0.05785587192676
  H   4.62240019286723      0.97943370825772     -2.07087930731016
  H   6.61685334311204      0.94292106052074     -0.55864682394957
  H   6.24203656714086      1.89578772919226      1.59272349708682
  H   3.83122561712730      3.26818194778767     -2.27633693631288
  H   2.18100343179112      3.15461268626215     -2.95160997647372
  H   3.17204557808208      6.06491502365665      0.73717934330063
