20
Coordinates from ORCA-job 6016optt
  Br  5.42788329616816      4.19374223586845     -2.95559823134790
  C   5.50444864497863      4.37134167326974     -1.11163870968096
  C   6.17894394240207      3.51185747843566     -0.32780794074916
  C   6.16092773897774      3.71799806208345      1.11818225354730
  C   5.43253025979785      4.83906785760876      1.67635077426732
  N   4.79892546716148      5.67240751255652      0.94726368980484
  C   4.79024296516966      5.51071019115038     -0.46171794369360
  N   4.17067841443052      6.33683165712491     -1.19206390314895
  N   6.83210177302046      2.81846496423824      1.76570773987299
  C   7.32768876364068      1.96273542294053      0.77877900870826
  C   6.95296008510052      2.30626807604345     -0.47833243550237
  O   7.30313528490414      1.63943472227824     -1.60840048960018
  C   8.70918801024572      1.49652607380325     -1.58616587331181
  O   9.39453570716728      2.15114660026783     -2.29106996757614
  N   9.19764251902247      0.42685232891003     -0.80599444385351
  N   8.90962362367416      0.14427102144216      0.37169780163098
  N   8.11448703703773      0.88477357168662      1.13518078896186
  H   5.43081919943911      4.97494476374043      2.75482573235284
  H   3.74322558144907      7.04807509189969     -0.59470517423789
  H   8.10201168621248      0.58455069465163      2.09850732355610
