27
Coordinates from ORCA-job 6019optt
  Br  5.93992352817515     -2.66060854405404      3.46600751825163
  C   6.01387555006549     -1.41465207114566      2.06426717063931
  C   7.05618427496723     -0.58175304777069      1.91334941058081
  C   7.19276241407701      0.23141065933930      0.70869406248431
  C   6.63617610688675     -0.28868403277827     -0.39749206286623
  N   5.60201812195333     -1.17969491693784     -0.27015210578031
  C   5.04461426821208     -1.57530848611317      0.96141929169717
  N   3.92002469835352     -2.14380685407235      1.10195992235087
  N   7.19023326756956     -0.18844953739975     -1.70088244545746
  C   8.34157554385078     -1.11794056576281     -1.89351368639530
  C   9.78066867205094     -0.64111774558661     -1.49790766471590
  N   10.54082466610035     -1.42375031707692     -0.49401735259418
  C   10.06991692706910     -1.20552072460263      0.80795470237196
  N   10.34349634344404     -0.06289689702122      1.38996072557428
  O   9.33984457983424      0.11870648142953      2.32877741704146
  C   8.47660935509030     -0.90413275884216      2.24475273198101
  C   8.99639428755889     -1.87692502512686      1.44269502499849
  H   8.05376225223580      0.87404508468117      0.61110825213831
  H   5.14737512335247     -1.47819444690788     -1.12068988758381
  H   3.41480643491083     -2.22882215696780      0.22240495429633
  H   7.45644602110151      0.76656351306359     -1.90813386938127
  H   8.35063664688045     -1.37489890830098     -2.95328043254090
  H   8.09493302139579     -2.03475468586859     -1.35385456131166
  H   9.74712784082280      0.38314836852190     -1.12707726508586
  H   10.39146879781878     -0.62870754247011     -2.40061659632168
  H   10.58741137024866     -2.40542577084981     -0.73226267750667
  H   8.47388988597408     -2.75382907137932      1.09852942313530
