25
Coordinates from ORCA-job 6021optt
  Br  1.06608106437728      0.26281959417569      0.08027744623480
  C   2.92663967357500      0.05601017647051     -0.02836022004442
  C   3.57067259925393     -1.13464858576267     -0.06725171496539
  C   5.00579052078451     -1.17921739861771     -0.11322789346182
  C   5.70693581256076     -0.03092741245411     -0.15405473077992
  N   5.04741963731715      1.15906147387686     -0.14213865220507
  C   3.66930236516284      1.32473249179834     -0.07273053912021
  O   3.18152961403247      2.43233053487727     -0.05813291197770
  C   5.54313979396827     -2.58445399884363     -0.04153365240449
  N   5.04449595031213     -3.23890486260372      1.17898838537991
  C   3.57330365398807     -3.27440451821339      1.19841921491109
  C   3.03022828106373     -2.55651896694806     -0.04333755582341
  O   3.57006243864376     -3.23348516130170     -1.19999734296327
  C   4.93723375710378     -3.31995533869032     -1.21121859107177
  N   5.59328963128859     -3.90734909486235     -2.10006112984755
  C   1.52713834067275     -2.76652004221020     -0.19661012754656
  O   0.85423302908262     -3.21352112572439      0.68294021635426
  H   6.78673894937690      0.01101033600727     -0.19506561082030
  H   5.56059180590011      2.02873770917756     -0.18133666340370
  H   6.62636336152462     -2.64092605021968     -0.09575638818147
  H   5.39872206954570     -2.73899647142605      1.98411993947030
  H   3.16143760406406     -2.81025721503814      2.09433480871382
  H   3.21592661544537     -4.30430804635069      1.15903555565641
  H   4.98090227719758     -4.31970309723561     -2.80353367511790
  H   1.13282115375797     -2.55460492988105     -1.20376816698562
