24
Coordinates from ORCA-job 6022optt
  Br  3.72520250804683      1.79670862650059     -2.17621059510214
  C   4.25254045649918      1.09819109156799     -0.51861335923168
  C   3.48252002725310      1.25797521108470      0.62339684445437
  C   3.85055627018006      0.59327571353539      1.78769216882299
  C   5.04915472531261     -0.10244116352075      1.77996337068698
  N   5.91877348983855     -0.00122464071125      0.77594508623778
  C   5.55100900245331      0.63113984039399     -0.31669386197997
  O   6.50139690123711      1.03219984302862     -1.20512921966265
  C   7.60100322634344      1.61179684845706     -0.58283342968783
  C   7.74593703375373      2.91288195988369     -0.36572144611901
  C   6.92053007247094      4.09562196587029     -0.80368011109449
  O   7.49461870026568      4.95762092755936     -1.42883247653270
  C   5.47428173432208      4.23555000529198     -0.52336010172319
  C   4.81989180938120      3.56705017983259      0.42277542074564
  N   3.42852185546393      3.62237389221033      0.62253406340360
  C   2.61696942779383      2.49222660693622      0.70281141527037
  O   1.42736108546637      2.54296637610401      0.84090949468352
  H   3.25917790772320      0.68999059239452      2.68772176878216
  H   5.37084047935918     -0.67613393994024      2.64056110950219
  H   8.37232740552453      0.90404527053755     -0.30828399355953
  H   8.70404115880985      3.20969603515216      0.04530337944484
  H   4.95894447394241      4.92849718404625     -1.17943645449061
  H   5.35386837662538      2.89409255070689      1.08463803684323
  H   2.93753187193345      4.47889902307804      0.40354289030613
