20
Coordinates from ORCA-job 6029optt
  Br  1.27720848306082      0.61313933411102      0.23741709667310
  C   3.10674364418815      0.15875421949574      0.17482323212353
  C   3.63927347015690     -1.08584928355598      0.17937083232790
  C   5.07778708781950     -1.17750168788273      0.09106953680426
  C   5.86228149081575      0.02699203087974      0.04532351747435
  N   5.37761597506223      1.20688107340357      0.05614459538997
  C   3.97748987426884      1.37701583613638      0.10700424557092
  O   3.50153022730780      2.47926678646076      0.09853724665937
  C   5.66867536183338     -2.38605117084402      0.02464394935774
  O   5.01291627676585     -3.52666875427715      0.04584597851352
  N   3.64291538532484     -3.54243952996394      0.19049167265751
  C   3.01254188138764     -2.42331865878850      0.26712857389144
  N   1.64264800286004     -2.51567755208107      0.45625044227198
  C   0.91760223215444     -3.65020238026371      0.75211926680168
  O   1.31311316861882     -4.76643750678092      0.88535543972825
  C   -0.52008613529293     -3.31458037997624      0.91131478387912
  N   -1.62917748045839     -3.06069108010830      1.03664129751793
  H   6.94566707357993     -0.07729034157330     -0.00574443312087
  H   6.73838117958029     -2.53298915308273     -0.05907805240612
  H   1.12487280096603     -1.64535180130860      0.42134077788442
