20
Coordinates from ORCA-job 6030optt
  Br  1.00458537310512      0.05489466518634      0.03704379938348
  C   2.86456770020145      0.04036025981403      0.03696879417682
  C   3.62069227719563      1.16047845962151      0.03694743529532
  C   5.06108052296865      1.11420057521515      0.03695266990702
  C   5.68342508830384     -0.08417818527481      0.03699643152852
  N   4.91323745431821     -1.20798995188740      0.03699793647837
  C   3.51951965381452     -1.27770192246433      0.03691832601297
  O   2.95844958118753     -2.34959620217009      0.03711310258828
  N   5.64518094307231      2.39005006331728      0.03696558047192
  C   4.67063637398123      3.23131372217943      0.03696917268617
  C   4.66065547515280      4.65737561295409      0.03700218594488
  C   3.44083665133014      5.22456186150307      0.03700610242344
  O   2.25595066152451      4.56619845160055      0.03698340350277
  N   2.20564926857712      3.19003398720116      0.03695700634659
  C   3.33592735849011      2.59709032792543      0.03695391328653
  C   3.24992340597065      6.64679540178062      0.03703703773833
  N   3.12936467871845      7.78615616027870      0.03706223252346
  H   6.75627729206943     -0.20779937599068      0.03704392866014
  H   5.35503677838711     -2.11707920837335      0.03705439965582
  H   5.55600346163117      5.26083529758329      0.03702654138916
