26
Coordinates from ORCA-job 6034optt
  Br  4.24357612789918      0.39112346456076      2.80198429448845
  C   4.75987500632017     -0.00935231026580      1.05117965939206
  C   5.89550547590317      0.44472170970332      0.44781190590023
  C   6.19450078978360      0.03227627082771     -0.88076402660463
  C   5.72781876681917     -1.18735271062840     -1.25581655107558
  N   4.59297023836372     -1.66372431211779     -0.68400842495786
  C   3.92317930772180     -1.02594187295677      0.37580317891957
  O   2.84539377999453     -1.42349550022054      0.74517969336589
  N   6.63980565076805     -2.04196756502252     -1.91986589805521
  C   7.62736616549233     -2.12005537357070     -1.11108408734784
  O   8.84375764473454     -2.54862054153576     -1.39187616711521
  C   9.76240062199123     -2.40005770901448     -0.28371955400247
  C   10.16476136768882     -0.95824510719685      0.08531604184043
  C   9.37368920104285     -0.16836041162215      1.13859292737682
  O   8.21288664941687      0.37253808106086      0.51684905343911
  C   7.14386759350238      0.81671073288621      1.23584329686639
  O   7.22663498304179      1.25362555298795      2.33964901510565
  H   7.09436461111751      0.37650358554078     -1.35352052903490
  H   4.21952546444023     -2.56314667184554     -0.95742742236218
  H   7.53307809914731     -1.79516432937400     -0.07440089654469
  H   10.64595610253597     -2.93641527796863     -0.61836670981686
  H   9.35351707623561     -2.92681952211290      0.58278108646098
  H   11.18250548890076     -1.03687149380100      0.47581107876002
  H   10.23412171305966     -0.36061075637473     -0.82686650582181
  H   9.99129689910204      0.64133201490195      1.52880093492520
  H   9.07164517497660     -0.79662994684096      1.98211460589848
