20
Coordinates from ORCA-job 6046optt
  Br  1.00738202877832      0.32602677540779      0.04808870772976
  C   2.84225024383194      0.02604292052328      0.05720105852403
  C   3.45636965656784     -1.19452161656493      0.06334385878591
  C   2.94766889966422     -2.52215046382247      0.06525975925376
  C   4.05302684010462     -3.32752128315907      0.07218809524615
  N   5.26215012541376     -2.65497987874240      0.07446153776026
  C   4.95655999311832     -1.38938901058854      0.06936495512250
  C   5.74601589958560     -0.20784799678928      0.06855009501670
  C   4.98709841901718      0.91213446926066      0.06296606520490
  N   5.56575672561544      2.13075074067588      0.06089201398630
  N   4.59010726000364      3.07684907514122      0.05330859654387
  N   3.46827730049099      2.50400196607214      0.05142869980199
  N   3.67337947329045      1.12396993603395      0.05737467746871
  C   6.99022273815849      1.91521924835849      0.06526410596958
  O   7.84746503911546      2.72484206064368      0.06478399584247
  C   7.11913213077744      0.33976470843887      0.07060254154908
  N   8.23469533644146     -0.23476042932966      0.07461389706867
  H   1.91224714060457     -2.81737462352974      0.06243861654868
  H   4.05565809026195     -4.40819385244539      0.07565678025340
  H   8.99353665915829      0.45213725441552      0.07421194232330
