21
Coordinates from ORCA-job 6052optt
  Br  1.01085259393941     -0.52120162247610     -1.26168523501770
  C   2.70687632527752     -0.12346175439552     -0.58152854604812
  C   3.54412199137535     -1.06446185931914     -0.04394222608449
  C   3.52470542982378     -2.45400005307337      0.17804984113785
  C   4.76488957634804     -2.73142090628193      0.72779032765107
  N   5.56698001619476     -1.63829844238851      0.87795209157691
  C   4.85210103245390     -0.62312329878274      0.42287553813814
  C   5.21597694885198      0.73884544495482      0.35705754764007
  C   4.30462525463320      1.61401297141024     -0.18336220140197
  N   3.09830895438611      1.15717465529896     -0.64437239142768
  C   4.49389811943931      3.05355146664445     -0.43796650034237
  O   3.73874026698996      3.65062573849594     -1.15892619791454
  C   5.57211532867449      3.85514080904977      0.32430804959818
  O   5.73805055908528      5.00204413850939      0.09548191174253
  O   6.14403003051420      3.24422791074035      1.40004281760910
  N   7.06298499518952      2.18519841270170      1.18712462526341
  C   6.57720217231858      1.09720497137562      0.75621162289713
  H   2.72740757077905     -3.14456732346011     -0.03976381239034
  H   5.12661878507225     -3.70283180988194      1.03238708626284
  H   2.51012967463663      1.85831114023392     -1.08739894085030
  H   7.30538437401664      0.29402941064419      0.69766459196028
