20
Coordinates from ORCA-job 6053optt
  Br  0.92138531351943      0.01373843582024     -0.42579450967769
  C   2.77467804499600      0.14758523692761     -0.21782466491643
  C   3.44059342077970      1.33679449267474     -0.09687919822922
  C   3.09977559548819      2.70918380771667     -0.06559179408297
  C   4.30769428583213      3.36459656781097      0.03872162786402
  N   5.39800773786956      2.53112524921186      0.06455694933791
  C   4.89561371505391      1.31838675600229     -0.00770205222162
  C   5.57190843787142      0.07629833703835     -0.01323083325940
  C   4.81726844751694     -1.05812271550727     -0.06223260853137
  N   3.45814632379426     -1.01103054514880     -0.19540145500597
  S   5.50278093415992     -2.65978690371015      0.14411983671680
  O   4.60431252655365     -3.55988897431983     -0.50613418054627
  O   5.82685237138364     -2.84943128712683      1.51999615470190
  N   6.91629666528211     -2.58260330031672     -0.68348951115032
  C   7.64166881015814     -1.53627176450691     -0.64745381384470
  S   7.31648947316661      0.06890379512594     -0.07096144520500
  H   2.11374722585546      3.13986641606773     -0.11124804875275
  H   4.45487233031704      4.43293800993927      0.10255590072055
  H   2.97651916984594     -1.89830791471432     -0.30641033287215
  H   8.64838917055591     -1.60897369898482     -1.05659602104531
