21
Coordinates from ORCA-job 6057optt
  Br  1.52369719094000      0.75513213385367      1.10896081914035
  C   3.28171783607941      0.33885327762134      0.62270834290811
  C   3.68128751983034     -0.92772512201123      0.39622827166604
  C   3.09575420104442     -2.24535518563720      0.43262442038479
  C   4.10906113130208     -3.08232039964508      0.09900856516505
  N   5.31700872681424     -2.41282142746090     -0.16274508359970
  C   5.06111805942904     -1.15497938694548      0.01220511733650
  C   5.97189418177546     -0.02348148538604     -0.15570711833211
  N   7.12573704394012     -0.18013085957697     -0.65495489974036
  C   8.09572241466934      0.80465342881017     -0.81332724704239
  N   8.86694590809574      0.73688931155638     -1.80726370332317
  N   8.24874915636715      1.73306196353013      0.25176073842378
  C   7.31284232817105      2.64417473266290      0.64243063879020
  O   7.52420250427333      3.59632888457921      1.31812910410277
  O   6.04726414056271      2.43738615456441      0.11779010798629
  C   5.33797088740082      1.29427646701525      0.22222366018993
  N   4.11688798991133      1.43899304317558      0.54075215209050
  H   2.07669249542017     -2.49307198381981      0.67847437487252
  H   4.08023000011787     -4.15754656077277      0.01636283540265
  H   9.51259040191608      1.52350336656141     -1.83707859407774
  H   9.19262588193924      1.99617964732503      0.49841749765597
