21
Coordinates from ORCA-job 6063optt
  Br  0.91920312264856     -0.40153421583616     -0.61567843751323
  C   2.76566066775652     -0.19989330353374     -0.33851220367491
  C   3.57798112502048     -1.28066233985815     -0.17944845412482
  C   3.33909888217377     -2.67846357339792     -0.16245378395921
  C   4.57148851741745     -3.24010666882249      0.07461864625203
  N   5.58466062690888     -2.31937677038306      0.20663573638214
  C   5.01892195575354     -1.14551648927131      0.05456718146073
  C   5.65960480609069      0.11671536220264      0.09305118423192
  Br  7.52851160248441      0.09097425072601      0.35882750642035
  C   4.98402543682166      1.29347632035406     -0.05240705666907
  S   3.27955395174851      1.41519482924720     -0.30958801483200
  C   5.60472752943556      2.64097916942794     -0.00940071560652
  O   4.96068607430108      3.64574845151524     -0.15459627653197
  C   4.88442183783077     -4.67588137871438      0.19468843464788
  C   4.71587297252466     -5.58173427270436     -0.95282379478662
  O   3.78516401056595     -5.55859058074521      0.11064169825483
  H   2.39892747892169     -3.18980396963959     -0.28323639329983
  H   6.68838794129409      2.66083293645197      0.16632897789409
  H   5.63346895020117     -4.92564903059562      0.93913649625896
  H   5.32790419566163     -6.47463794220161     -1.01253870105377
  H   4.35672831443887     -5.17107078422145     -1.88981202975100
