24
Coordinates from ORCA-job 6070optt
  Br  0.97064128809548     -0.08765849708954     -0.17026526934931
  C   2.84320609576518     -0.01869780051283     -0.07636796475103
  C   3.54426061248393      1.16239914449015     -0.02666411505696
  C   3.07452010014221      2.60708142027936     -0.00503486999506
  C   4.39933230327852      3.37845747451027     -0.23523385589300
  N   5.41628320700521      2.45608385941975      0.26400952591281
  C   4.94767919624997      1.16788131667928      0.12846095843199
  C   5.71537042383514      0.00511868894657      0.17599844823722
  C   7.12964550593015      0.03933447604922      0.30189798032062
  C   8.32383181566574      0.10511809899499      0.40199186609193
  C   4.95897182720709     -1.16330080839971      0.08739403888165
  C   3.57705814303640     -1.20912531030069     -0.02626423369238
  N   3.18090591209686     -2.54062674889784     -0.06873869353438
  C   4.27780393895669     -3.19159628566954      0.01204646032468
  O   5.40971648630978     -2.43925500064370      0.10824485983410
  C   2.06675217607724      2.98277823926568     -0.98980203869168
  C   1.27363163552421      3.34607865124076     -1.80908585789956
  H   2.68992079616519      2.83121772971257      0.99610678762369
  H   4.41956525970536      4.32450596720306      0.30097788632710
  H   4.52012901095669      3.56797395122613     -1.30577484579790
  H   6.38361535460003      2.62364532792565      0.02816497292520
  H   9.38265799895121      0.14641647996237      0.49568368352136
  H   4.41792858620263     -4.26010987862799      0.01583700250617
  H   0.55757232575903      3.64727950423601     -2.53558272627726
