25
Coordinates from ORCA-job 6078optt
  Br  1.03865375591752     -0.23428159686004      0.06119345550435
  C   2.93583822176853     -0.17958790060738      0.01965405964948
  C   3.62933232609659     -1.36864017051830      0.02185034938644
  C   3.19510648396107     -2.80326305269743      0.07327638883063
  C   4.50783343706473     -3.54066319576878     -0.28335233736905
  N   5.56052927997724     -2.58009238914733      0.04801074723729
  C   5.02420016870632     -1.31402962677436      0.00130780137304
  C   5.66475024388344     -0.08126607368732     -0.03034586469336
  C   4.83706632570747      1.03553283722907     -0.04090242076010
  N   3.50331649332901      1.00858369094423     -0.01545812682850
  C   5.44680179272836      2.34682619299138     -0.08878185924668
  N   5.96824328723424      3.36657391181160     -0.12828383614635
  C   4.61070761444565     -3.94526702392874     -1.75574074692488
  O   5.60915052691551     -3.71044726849964     -2.38341104364155
  C   3.44230469690568     -4.63961089205955     -2.43282534277499
  C   2.65578448068644     -5.64709350127427     -1.63331189232574
  O   2.79318209383940     -5.85983374266087     -0.46175656786786
  H   2.37188865888678     -3.02545112948704     -0.60398233722399
  H   2.86382781408924     -3.07510507565965      1.07707273241091
  H   4.60519938440866     -4.45748199543439      0.29761772004946
  H   6.44435507280517     -2.72929557345783     -0.42031407991420
  H   6.73978934588652      0.02438549702194     -0.05273772347685
  H   3.80638694134737     -5.10869952444109     -3.34914833281223
  H   2.73180062080519     -3.86859797891477     -2.75875276320144
  H   1.90395093260377     -6.20519441811940     -2.22087797923382
