20
Coordinates from ORCA-job 6079optt
  Br  1.09667962122026      0.32659637343955     -0.08202379994820
  C   2.95013452195796      0.07298540889845     -0.08425075804078
  C   3.51425752825531     -1.17338325014116     -0.08547569908780
  C   4.95976860279833     -1.24333921193169     -0.08639991299429
  C   5.29666364167629     -2.57086883068781     -0.08751198447262
  N   4.16161413424921     -3.33372507403044     -0.08744643985095
  C   3.10115955237515     -2.54066924375080     -0.08618116802588
  C   1.77043877072892     -3.04227004669715     -0.08616867782091
  C   0.64977022465166     -3.46702637228905     -0.08543196685976
  N   5.68412759665637     -0.05902720008612     -0.08616397079402
  C   7.08597710884835     -0.15259823961691     -0.08681061317800
  N   7.91298450018096      0.79810661081767     -0.08692291346208
  S   7.48894432431651      2.39564457978777     -0.08638340680557
  C   5.72486700321701      2.43440488317787     -0.08570574561606
  O   5.15691386534125      3.48411786593534     -0.08539294846649
  C   4.98731050909672      1.11749722114571     -0.08537565255077
  N   3.68906689323105      1.19418655774606     -0.08439240212730
  H   6.26583801374740     -3.04222148298206     -0.08845117221005
  H   -0.34518348707971     -3.84304028005035     -0.08531173276803
  H   7.44566707453097     -1.17337026868486     -0.08719903492041
