24
Coordinates from ORCA-job 6083optt
  Br  1.00622779945288     -0.04893521967153      0.99338974290209
  C   2.81744911342410     -0.07872322051744      0.50883833676695
  C   3.46638515932533     -1.19136531596618      0.07072699156883
  C   3.14288166783779     -2.54887289248619     -0.17511130049461
  C   4.32619477453179     -3.10692847879366     -0.60055380616976
  N   5.38174814922676     -2.22971638762457     -0.65373423559342
  C   4.88941137155087     -1.07558769691124     -0.25463975155146
  C   5.53426525904996      0.17530064330772     -0.13486821990310
  C   4.81468404790868      1.23659723127585      0.31588799819521
  N   5.32804952454255      2.52745470096852      0.52920751645195
  C   4.96478566584351      3.59724303985626     -0.27201245394540
  N   4.13394366751966      3.62520015291295     -1.22227818723509
  C   5.63879772074257      4.92148672556397      0.08312547898087
  O   5.20758874678940      5.97119001676205     -0.29195604020691
  C   6.92630152416965      4.99175813672092      0.92273650738137
  O   7.47613342390475      4.06127179287983      1.43899705977305
  N   3.48221753396742      1.09222283930959      0.63249996569129
  H   2.18655965033859     -3.02869585305236     -0.05285646770535
  H   4.48165716043835     -4.13828749040473     -0.88403663694394
  H   6.57628887490887      0.29691848873136     -0.39519274161250
  H   6.19416651452028      2.61036279915939      1.04600893113355
  H   3.74917789212421      2.70540939210761     -1.43681534837674
  H   7.29743274488081      6.02728249816352      1.00430327931997
  H   2.99465201300116      1.89941409770837      0.99633338157315
