23
Coordinates from ORCA-job 6085optt
  Br  1.45013200996430      0.65723264059190      0.74974788572911
  C   3.19601363407267      0.16463059912475      0.32516493001816
  C   3.59746185154078     -1.08656558358144      0.02283186493430
  C   2.99823639085551     -2.37319228738363     -0.10935502357548
  C   4.03739942025919     -3.19480980383695     -0.44712455400247
  N   5.26417332402353     -2.55244574171420     -0.54325060918444
  C   5.01537273810596     -1.30134990782609     -0.26697590963069
  C   5.89064243793134     -0.18277139624055     -0.22043885006029
  C   5.36553858302740      1.01916160936662      0.08076392807045
  O   4.04260326243862      1.19159760510104      0.34893806371755
  C   6.10839729192284      2.31925005042930      0.13595721394869
  N   5.66465659505516      3.28732954868938     -0.83987499948856
  C   5.07281932322924      4.37943911990102     -0.28266907624973
  O   4.53058540768841      5.29555459468605     -0.80714348444070
  O   5.22116855273375      4.27416969609472      1.09133301032549
  C   5.83079645929260      3.09532166707317      1.41893656806082
  N   6.11388961770277      2.69922813456323      2.56494455872832
  H   1.96105622200718     -2.62865237843573      0.02590754139104
  H   3.98410979232068     -4.25665623175564     -0.63784989268697
  H   6.94796104095500     -0.28158831371958     -0.42207486309654
  H   7.17567726181923      2.10654685760284      0.06087594646162
  H   5.55786562529809      3.10226243426238     -1.82275958227758
  H   5.83644315775569      3.36730708700741      3.28211533330789
