22
Coordinates from ORCA-job 6086optt
  Br  1.20421553377200      0.42011662828052     -0.00310451592151
  C   3.03928434419585      0.07644897294564      0.02954105198980
  C   3.59135611369205     -1.15397898702519      0.05399159615211
  C   3.13842452254534     -2.50327766998440      0.06620037013896
  C   4.29126729063385     -3.24193664763216      0.09351929530659
  N   5.45342654662672     -2.48945269426017      0.09977318092098
  C   5.05206617846173     -1.24353822590666      0.07616896938957
  C   5.80242574904633     -0.04414538306399      0.07061740315723
  C   5.12919441749964      1.12830273875909      0.04607662954160
  O   3.77031416940173      1.18399412159704      0.02635315409902
  C   5.72878718373163      2.45349802690671      0.03728642637357
  N   7.04792148190766      2.60837495834872      0.02988109302130
  N   7.20599595315305      3.90765418105617      0.02510370648433
  N   6.12176015972632      4.63846740745116      0.02849572995424
  C   5.13704622293412      3.73919070556340      0.03632619952275
  C   3.76959957358347      4.12276239237239      0.04608474892668
  C   2.61480735176416      4.43772655853147      0.05387095007056
  H   2.12019777827764     -2.85295891804192      0.05672442215319
  H   4.36264514756096     -4.31993653437900      0.11026704432318
  H   6.88262637817154     -0.03925737894109      0.08589086348543
  H   8.12296799736494      4.32632426936444      0.01863854649234
  H   1.58866990594926      4.71862147805783      0.06129313441809
