29
Coordinates from ORCA-job 6090optt
  Br  1.21924640005914      0.20573509734260      0.43673475205044
  C   3.05427027845706     -0.10602897455360      0.15822078660503
  C   3.54030821871841     -1.32380820789794     -0.12406319443005
  C   2.89342839936690     -2.66349054834156     -0.30978172863089
  C   4.10587258220848     -3.62266468931735     -0.31828845129698
  N   5.24259817519289     -2.74998996920675     -0.61911610647919
  C   4.95793722235830     -1.44229141777961     -0.31390085562687
  C   5.80594424275330     -0.38297660488622     -0.20751646080667
  C   5.28125833657068      0.92368072450757      0.08812952534996
  O   5.91386276235527      1.95554075420068      0.20288339812085
  N   3.87742789008149      0.96889080232061      0.25841289785700
  C   4.30244308394850     -4.34481887357787      1.00497691934174
  C   3.20750942253586     -5.35392316721808      1.36207102352980
  C   3.95037333153971     -6.40076592434016      2.18678810085145
  O   3.46058488182311     -7.30578838698760      2.79700548031146
  C   5.44088325459272     -6.07925862890585      2.07616765124537
  N   5.56034671091611     -5.11603335546280      0.98389974884600
  H   2.35392212724728     -2.71161546854757     -1.25756622840271
  H   2.18710773232347     -2.90966531493979      0.48381131545827
  H   4.00075196996347     -4.37698844301718     -1.10498825833253
  H   6.16408023269230     -3.10706582884856     -0.41059634276136
  H   6.87398979958516     -0.46638566293218     -0.34187586334980
  H   3.50361844210742      1.88203820899500      0.47291915853211
  H   4.39365252927746     -3.59512552326064      1.80042569353816
  H   2.82377065861510     -5.84452713042030      0.46066612198049
  H   2.35871104316138     -4.96197992226255      1.91961577715565
  H   6.03657363871910     -6.97546358634896      1.91721023088555
  H   5.76168986039174     -5.62225577699606      3.01775942172884
  H   5.60383677243812     -5.62897418131723      0.10599548672885
