18
Coordinates from ORCA-job 60optt
  C   16.92346071500535     11.27878554269489     10.46234349261494
  C   16.23079991245073     12.48505134824357     10.45930439829556
  C   16.91716066237172     13.69616245473596     10.48602644713688
  C   18.30108956975952     13.69665238555680     10.51597221914310
  C   18.99374847726396     12.49038930057112     10.51901314761560
  C   18.30738820718279     11.27927569241323     10.49229185619565
  C   14.74172790360005     12.42999901850219     10.42507105663777
  C   20.48282386568981     12.54545366822951     10.55327081187220
  H   16.36152879711969     10.35468253292701     10.44096164326063
  H   18.85876357247032     10.34967091089263     10.49457824876861
  H   18.86304606858484     14.62074173605161     10.53735416173624
  H   16.36580659389399     14.62577984426113     10.48375257721963
  H   13.21518791636340     13.51315745573036     10.38943890196971
  H   22.00936678907998     11.46229317841100     10.58892593706418
  O   14.17337382074039     13.64833434105913     10.41109195332543
  O   21.05118108529634     11.32711688356228     10.56726354062758
  O   14.09852634998434     11.41687863084981     10.41050809797341
  O   21.12601969314268     13.55857507530769     10.56783150854284
