29
Coordinates from ORCA-job 6101optt
  Br  1.01188984421521      0.14050379064824     -0.17607701772899
  C   2.88158379279328      0.07081411227100     -0.38416637234836
  C   3.56486207862490     -1.10745575819973     -0.26991652724380
  C   3.10730963447619     -2.51508141641040     -0.01427553117096
  C   4.42691975095534     -3.21149663115022      0.36206564536865
  N   5.44700111143656     -2.42058156386047     -0.34412513220740
  C   4.95496196294167     -1.11607162500488     -0.44896864428073
  C   5.60157087295757      0.06600609608635     -0.72854663039620
  N   4.92393227017763      1.22112591067467     -0.82562780947122
  C   3.62524103840748      1.23518987235527     -0.66351356541078
  O   2.93971448819153      2.39456231183712     -0.75817142203536
  C   3.67108809469072      3.55420438730178     -1.10980350593524
  C   2.65941299898062      4.66520091539405     -1.38268560099541
  O   3.33526727738868      5.87736935814152     -1.05858414260538
  C   4.40003776952782      5.63315920357955     -0.23875251241028
  N   5.15840580940705      6.52074064892819      0.21865465533666
  C   4.51304966667929      4.15147865559034      0.01018852696075
  H   2.68928280559327     -2.93095667805301     -0.93526070770262
  H   2.34736472145521     -2.58751649615843      0.76132452361237
  H   4.45858590079166     -4.25304376137515      0.04959854271363
  H   4.57234080739332     -3.16398106953947      1.44691492455881
  H   6.39066639556838     -2.51250254634207      0.00133640668531
  H   6.67364124263540      0.11752150917394     -0.87571013913038
  H   4.28683292164478      3.34473146580406     -1.98581596725114
  H   1.78996368033743      4.53773900411034     -0.73384607777293
  H   2.33700395157079      4.71773302054178     -2.41998399492730
  H   4.86040931256039      7.44603700309259     -0.08750516000399
  H   4.05486526564362      3.91618245746965      0.97445892333137
  H   5.54679453295415      3.82338782309336      0.02379431246093
