23
Coordinates from ORCA-job 6102optt
  Br  1.27741873176044     -0.38320462697515     -0.04216909524893
  C   3.15961114236863     -0.16635334954174     -0.01515405717276
  C   3.70967801280294      1.10551414137091     -0.03041885497244
  C   5.08391909771684      1.23144652995872     -0.07884561231569
  C   5.46321613733070      2.67779698313748     -0.16838742319018
  N   4.20911830278573      3.35886396342445      0.16390227533964
  C   3.05904372520506      2.47521630084614     -0.04009856306388
  C   2.40199619676360      2.71876810226601     -1.34986977702350
  N   1.93625231464492      2.96656229348528     -2.36729781717879
  C   2.05559614830314      2.66526742443841      1.08177006048373
  N   2.29301773302163      2.27126468052912      2.29618344372939
  C   1.23208946691188      2.61844121464460      3.07320054732481
  N   0.21938027591730      3.24460837918254      2.53471539499425
  S   0.54173473002550      3.44087706655171      0.94136655121870
  C   5.87418214001437      0.09539713247790     -0.07174702217265
  C   5.21899377046649     -1.12597829095353     -0.02314983147035
  N   3.89113563609172     -1.25581843614839     -0.00400793267114
  H   5.82449237994779      2.90313974090403     -1.17876288978106
  H   6.24429359792963      2.94713389864392      0.54374726014503
  H   4.09270836388695      4.26125009847836     -0.27493141108495
  H   1.22636567813478      2.37665033448014      4.12713283405296
  H   6.95404759250662      0.14392654513633     -0.10173541006729
  H   5.78170882546324     -2.05177012633729     -0.00544266987492
