25
Coordinates from ORCA-job 6104optt
  Br  0.96839078610417      0.16047307604471     -0.11173887183056
  C   2.82684409838408      0.23452558693370     -0.28554451677657
  C   3.59696256733880      1.31156215946805      0.06587047551901
  C   5.03370222869403      1.22765397821473     -0.10733382274253
  C   5.52356978392192      2.44617499480218      0.33659057202691
  N   4.52230918363679      3.25562474076081      0.75700423316263
  C   3.37222810617474      2.60493558361363      0.60831035616693
  C   2.11493567804465      3.17583191323756      0.96248215920859
  N   1.08259476636557      3.59907343983918      1.23512557691425
  C   5.61344970384018      0.04823972857189     -0.63877079400282
  C   4.78185606472827     -0.97070097927868     -0.97124799860545
  N   3.41992208057674     -0.85671965233854     -0.78888490942505
  C   7.10352976877634     -0.06223349953435     -0.76353481977524
  C   7.80971451866793     -0.27915244259950      0.60815658510427
  N   8.85957151878323     -1.27012563805614      0.36288181757693
  C   8.65725183346968     -1.73281353737953     -0.79619775099563
  N   7.55509226449001     -1.24614243647701     -1.49730700097446
  H   6.54987535783238      2.77864627032557      0.37419466281937
  H   5.12837733543362     -1.90872753523773     -1.37511567761581
  H   2.83024509709451     -1.63612081823248     -1.04178560559439
  H   7.47865393485035      0.85243484017630     -1.23558914021051
  H   7.10544827029814     -0.67483698868432      1.34430317664255
  H   8.23062649484587      0.64009886746952      1.01145647185230
  H   9.26527640605459     -2.50857720274739     -1.24825580918335
  H   7.64957215159331     -1.16312444889218     -2.49906936926135
