24
Coordinates from ORCA-job 6105optt
  Br  0.86191574501938     -0.35019612467671     -0.31638653684807
  C   2.72439205090803     -0.12804965026862     -0.17655533698216
  C   3.55977100162990     -1.19489343932570     -0.17872025689068
  C   3.32644428209345     -2.61968132814129     -0.27253027519099
  C   4.53896649747862     -3.21240018240370     -0.23666747731257
  N   5.53443107666964     -2.25879660878391     -0.12550123536698
  C   4.98852466163619     -1.01398915287934     -0.08970864065391
  C   5.72640639085180      0.14941253333319      0.00120744344031
  N   7.10578848302365     -0.03232860571286      0.05655440149207
  C   7.94289690764301      0.92848965443618      0.04247950471276
  N   9.30071541635976      0.67747266633213     -0.01004015437806
  C   10.18485222042720      1.03902619420769      1.07377363552831
  C   9.90764371718913     -0.38870418467173      0.73418244906777
  C   5.07646023927915      1.42947578988169      0.04397408704928
  O   5.60330709511564      2.51949629270835      0.14240495877553
  S   3.26478659532303      1.48604077783435     -0.05479052798969
  H   2.36946479455613     -3.10443207538495     -0.35346805673583
  H   4.79201329898910     -4.25890541177883     -0.27998074257648
  H   6.53095473435788     -2.39961622891977     -0.09573523745664
  H   7.67344284358760      1.98002186404036      0.01268358500550
  H   9.73096619888186      1.42661740983458      1.97844618889640
  H   11.12377205422077      1.49155176584082      0.78429161858027
  H   9.25823699835671     -0.94545276158294      1.39911070347064
  H   10.65684669640232     -0.96515919391900      0.20797590236320
