22
Coordinates from ORCA-job 6106optt
  Br  1.26218291702002      0.32910865140358      0.52589864119741
  C   3.05784923340238     -0.05010241888246      0.15644973647613
  C   3.57909427753577     -1.31319930678974      0.07235033738251
  C   3.13046131454842     -2.64155610576700      0.18714053775450
  C   4.27242769031263     -3.40422551101931     -0.02668128152428
  N   5.40008295177596     -2.65490167966424     -0.26916785603484
  C   4.99725775357983     -1.40261466523007     -0.21258764783064
  C   5.72681396201741     -0.20736908626053     -0.38466917306874
  N   5.17120430213788      0.97046754813360     -0.29576536306823
  N   3.86144812027929      1.00689413518736     -0.02895027411788
  C   4.39061928718152     -4.86055485045420     -0.01299297410519
  C   5.58553531414834     -5.47511687393420     -0.19531062701667
  N   5.76238452449873     -6.84029850531175     -0.18813995378859
  C   4.71371512945182     -7.53409904463656      0.00643023868231
  O   3.48082241000860     -7.06144734691672      0.19545715107059
  C   3.21297488000643     -5.69239405146865      0.19951739510947
  O   2.08030182755726     -5.35740982032200      0.36916213285654
  H   2.13723414540089     -2.99915968210368      0.39129663094438
  H   6.78720483605195     -0.21291141504339     -0.60066342983345
  H   3.47806760596374      1.93903736428801      0.03126123889030
  H   6.47080055524648     -4.87526095047419     -0.35898881024301
  H   4.73951696187459     -8.61688638473383      0.03495335026735
