20
Coordinates from ORCA-job 6118optt
  Br  0.85071370586761     -0.11546348219804      0.04517481369235
  C   2.72183299488371     -0.03829083237740      0.05448519263021
  C   3.42868587465775     -1.20914856049104      0.05855053631998
  C   3.12284562816355     -2.58936427270397      0.05831582356841
  C   4.34657983066386     -3.21787400362407      0.06273869211822
  N   5.43288034342866     -2.36607304409105      0.06591224363078
  C   4.89367433931599     -1.18054274438392      0.06361022161646
  N   5.51422216589201      0.03121057559266      0.06477756482004
  C   6.92880137099956      0.24802289871477      0.06803640668400
  O   7.76690012455976     -0.58988590456662      0.06991705397113
  C   7.11236671355486      1.74032130969979      0.06825416046430
  N   8.20458100858599      2.35577437684629      0.06946365393544
  C   5.73864864580998      2.36358688682864      0.06592761959392
  O   5.48623672084205      3.53068317514768      0.06727082686647
  C   4.78590094162279      1.21298134588209      0.06215742526120
  C   3.41590496524962      1.20643054312323      0.05680423021501
  Br  2.47962057725823      2.82926986736517      0.05191206064292
  H   2.14436599101697     -3.03735447968849      0.05532712505478
  H   4.52321896989624     -4.28359836264047      0.06392482258542
  H   8.98301908773079      1.68631470756477      0.07043952632895
