30
Coordinates from ORCA-job 6120optt
  Br  0.58420846500804     -0.17876083172928     -0.09598407320101
  C   2.47357680500242     -0.06551100249428     -0.08734987081392
  C   3.23439218501730     -1.18029643615837      0.17693218507912
  C   2.89286671759249     -2.60439745097314      0.50794480407782
  C   4.25650739665379     -3.30836397467921      0.34119666800545
  N   5.22621818620366     -2.23011110603690      0.55442956066910
  C   4.63044442348733     -1.03049281978527      0.22423733037695
  N   5.29910750680580      0.09685352560163      0.02101687290140
  C   4.51841925693445      1.13183170311436     -0.27174916719024
  C   3.12776602676274      1.12952992698793     -0.34856570002903
  C   2.69793890442998      2.55564051532219     -0.58576804845756
  C   2.97882953120613      3.31823880276808      0.73775285457500
  C   4.52938744287481      3.31476353909978      0.82814248891315
  C   4.95572421991104      2.56537062567229     -0.48270925099014
  C   3.87071534919139      3.06089571435248     -1.45231876367014
  C   6.39521542583518      2.77956360303788     -0.82922222054619
  O   6.77053712241031      3.58335838719235     -1.63957984748393
  H   2.12367475969106     -3.02607189877039     -0.13693897054497
  H   2.53906673490783     -2.67589216744274      1.54019239772969
  H   4.34593124863330     -3.72084001608916     -0.66915890689130
  H   4.40271454976009     -4.11135019329955      1.06064919333747
  H   6.18238036875565     -2.36084289247052      0.26231206939317
  H   1.69434181695906      2.68369257784836     -0.98253431002080
  H   2.50637619201429      2.83448183572572      1.59090778007062
  H   2.59865816737824      4.33760701490410      0.67162160466638
  H   4.90839495564843      2.81138145379949      1.71615247109576
  H   4.93037887868175      4.32830892136886      0.80793477071373
  H   3.93097710067990      2.57812012282291     -2.42673555561639
  H   3.88525217714936      4.14432630882582     -1.57048182282806
  H   7.11499808441412      2.15896621148454     -0.26532654332112
