24
Coordinates from ORCA-job 6121optt
  Br  0.84656237523085      0.65784025460873      0.25842954529512
  C   2.71579593342647      0.42839622766645      0.05720322217352
  C   3.49619288139539      1.54128499517469      0.01416412150167
  C   3.18899583441875      3.00967519052350      0.06777962103631
  C   4.58221842083930      3.62932461563068      0.30906663429440
  N   5.50045028132479      2.61015527310698     -0.20192837922668
  C   4.89653321172267      1.37975406402076     -0.14529475090174
  N   5.52642668985086      0.23447282792138     -0.24273830028872
  C   4.72662941818778     -0.83663316160994     -0.18917342763644
  C   3.32638766301152     -0.84326324226591     -0.04142381130974
  C   2.81380206381919     -2.19191791770052     -0.02452375933843
  N   1.45611818499033     -2.52892747908775      0.06197416861696
  C   0.85180925528503     -3.48916036438748     -0.69629615822092
  O   -0.30435953476128     -3.80668368012047     -0.58325122175031
  C   3.79632613446234     -3.11914817568656     -0.14498737431111
  S   5.36723312465481     -2.43718481215896     -0.31397156324091
  H   2.47551034862032      3.26979674767652      0.84778764898459
  H   2.77366021146497      3.34086188263460     -0.88759253002787
  H   4.74192647420108      3.79819134222888      1.37856105227178
  H   4.71436590262877      4.57313407082433     -0.21538971240280
  H   6.48611797778860      2.66218807731900      0.00206091742332
  H   0.85143995937853     -2.01144524680340      0.68313921102183
  H   1.53654306699865     -3.93660445979894     -1.43412691130722
  H   3.66831412106022     -4.18910702971660     -0.11946824265660
