27
Coordinates from ORCA-job 6124optt
  Br  0.92234116733980     -0.05114371828651      0.18446424630760
  C   2.79697882570246     -0.00098059356937     -0.00891675987229
  C   3.48353034679346      1.18217670016339     -0.12695789938234
  C   3.04642523102231      2.61648655777982     -0.18545127861036
  C   4.38003048079619      3.36327528426160      0.02477651168840
  N   5.38496380484438      2.41222722007158     -0.45973033417599
  C   4.87857789994771      1.13199913080201     -0.29019923226395
  N   5.60897968014290      0.03159118969166     -0.31370673275156
  C   4.90722096999831     -1.08849079928161     -0.19932597209481
  C   3.53453069502863     -1.18129876364699     -0.04394981496248
  N   3.10663625213248     -2.50812717111949      0.12139063053603
  C   4.19662489561759     -3.34026521020229     -0.38121803466089
  C   4.00329358378413     -3.68148387691814     -1.85377493411446
  O   2.99844526093376     -3.41544724605820     -2.45027491862908
  C   5.47672096476648     -2.49307805703004     -0.12569460779144
  C   6.59492917184782     -2.76576534794378     -1.01850343826264
  C   7.51763808240075     -2.98676950430601     -1.74808783701651
  H   2.29750944933178      2.87360998794098      0.56176823292922
  H   2.62680087908797      2.83694776137949     -1.17112361130516
  H   4.52247912245639      3.57787912999975      1.08948311901129
  H   4.42670098280205      4.29801138451060     -0.53010063266944
  H   6.34695599253347      2.54924904716367     -0.18866899022187
  H   2.22976492154268     -2.70551939951241     -0.35152686787624
  H   4.25644067389019     -4.29072995015163      0.15631512513131
  H   4.83544068141939     -4.22267654055404     -2.33479315765237
  H   5.80546046129560     -2.67345918527484      0.90379033340776
  H   8.34057952254121     -3.17321802990919     -2.39598314469772
