23
Coordinates from ORCA-job 6127optt
  Br  0.85504947475886      0.35418245801364      0.08334267306586
  C   2.72902992927267      0.31805018245320     -0.08540223447452
  C   3.36634669145455     -0.86510851702540     -0.05717977991918
  C   2.97794953919643     -2.25043944417382      0.05197823551409
  C   4.11084500274452     -2.97623709405629     -0.05741256890228
  N   5.22048420792864     -2.16355912794932     -0.22987172259368
  C   4.82791091723019     -0.84847485249750     -0.21801172382082
  N   5.59766486323134      0.16687843316302     -0.29224448073092
  C   4.97544397156577      1.41135058703294     -0.21904329522025
  C   5.78162524246197      2.46152597933020      0.02221618570555
  C   5.36094329257711      3.84595540354344      0.26780331720106
  N   5.74678891376371      4.58379643823846      1.20697008617461
  O   4.58072905332708      4.44713948056060     -0.69259034533879
  C   3.37908832248210      3.97993745642521     -1.10583375332080
  O   2.74010029710683      4.64213303492727     -1.86925081042754
  C   2.84990564947643      2.69452233414732     -0.60611785697988
  C   3.49303114650702      1.54859077413698     -0.30158458976820
  H   1.97940994244364     -2.63113455685761      0.17619406648541
  H   4.23075321326983     -4.04750003104449     -0.03191912345525
  H   6.17885014887910     -2.46112719469192     -0.28501010876444
  H   6.83879779635785      2.25570918563763      0.13380763383155
  H   6.38424337906137      4.07707954205103      1.81782268650814
  H   1.77100900490290      2.68072952863539     -0.66566249076970
