22
Coordinates from ORCA-job 6128optt
  Br  1.03636672145711     -0.11830493673343     -0.06056987796301
  C   2.90458009245934     -0.08403978299192     -0.05941182573704
  C   3.59044470018553      1.09087422592879     -0.05946551291233
  C   3.23264890708271      2.48098943051339     -0.06013462310235
  C   4.39486267230024      3.17923922597756     -0.05988255777068
  N   5.48448714424152      2.33432690466881     -0.05901554482768
  C   5.04533829919486      1.03384516167340     -0.05877736179852
  N   5.78795464277475     -0.02020043173673     -0.05818610998111
  C   5.09214484953468     -1.19671983642509     -0.05807414330629
  C   5.77540380938464     -2.39810681231552     -0.05759534139874
  N   5.10142224931035     -3.54197590131907     -0.05740954710760
  C   3.68618390969520     -3.65484123644803     -0.05760508182885
  O   3.19588592449778     -4.75743816655776     -0.05726327659335
  N   3.01036020725957     -2.46824213045983     -0.05831038359768
  C   3.64607379187643     -1.31938545798353     -0.05856031475278
  C   7.26512640120504     -2.50972087218115     -0.05734630664905
  O   7.79020493808137     -3.58996487424221     -0.05709696367191
  H   2.23654729367166      2.88713012634322     -0.06070507496478
  H   4.54276176023686      4.24726323620800     -0.06022026102921
  H   6.45216384750882      2.60534407376482     -0.05888316657614
  H   5.63261906338489     -4.40861991127777     -0.05704380327457
  H   7.82341877465662     -1.56645203440593     -0.05744292115629
