23
Coordinates from ORCA-job 6129optt
  Br  1.06991048958595     -0.17838338350777      0.36785950950746
  C   2.93024484244669     -0.24750157652626      0.19920029050749
  C   3.66958433776465     -1.38264389212748      0.12767096777712
  C   5.08648402991711     -1.25521635855809      0.01022854262272
  C   5.67057330355953     -2.64225683666940     -0.04602392728834
  N   4.49261044419018     -3.48360479279803      0.04873995083208
  C   3.32160357863394     -2.80888262417904      0.14428352376560
  N   2.11977943981425     -3.27194028849714      0.23023340720456
  C   1.91359353001002     -4.62590125442146      0.22236313685314
  N   2.80463923485492     -5.58048930934807      0.13318124206270
  O   2.12190981482021     -6.75118139470593      0.16239177107777
  N   0.79236501552084     -6.53778681564759      0.27104591975299
  C   0.63143834544435     -5.26033368969381      0.30952599988616
  C   5.72227075824019     -0.06696238819659     -0.03750852260101
  C   4.95100990950447      1.15663034566457      0.02930883992677
  O   5.37620968106672      2.28944039512012     -0.00753946718199
  N   3.55781816332099      0.94833309552871      0.15090051914355
  H   6.35970203414382     -2.81865425041726      0.78300438010821
  H   6.20857081467399     -2.80837279999502     -0.98207887267930
  H   4.50719463344510     -4.49381200073125      0.03031449394337
  H   -0.34170112475664     -4.80785760505166      0.39668453699365
  H   6.79439882718395      0.03423872975791     -0.12756323391842
  H   3.01078989661476      1.79813869500058      0.20377699170372
