26
Coordinates from ORCA-job 6133optt
  Br  1.04973078872642     -0.17525584665566      0.20544796328141
  C   2.90204715278713      0.19843406913216      0.19610380737919
  C   3.34738414021115      1.45605366737221     -0.10384264516464
  C   2.67545990956488      2.73460371278016     -0.49738058393896
  C   3.81451318107872      3.77083435858887     -0.27622388599670
  N   5.02323328733542      2.96749713703814     -0.44586039399519
  C   4.73736949802648      1.66041943576674     -0.09984407253266
  N   5.64896648482078      0.75222834253549      0.17414023594918
  C   5.17334264544609     -0.46621314355952      0.46330773296905
  C   3.83177567982646     -0.80144361971168      0.49195165720949
  C   3.75962940848713      4.88372088032099     -1.22639667628844
  C   3.70668880214007      5.80949233993832     -1.98216642702465
  C   3.74794802897747      4.33445969232600      1.19496835618957
  C   4.90383844293382      5.31104035343420      1.39077772885046
  O   6.03502904779547      4.94374222521857      1.53341650243671
  C   2.47432471685056      4.97356094262645      1.49059509955209
  C   1.43784156652866      5.52276643361767      1.72932479554013
  H   1.78608055634713      2.98012979432780      0.08038426729971
  H   2.40288820375304      2.71676254906357     -1.55514779950195
  H   5.90321994437647      3.35629095489173     -0.13060063712943
  H   5.91753156561918     -1.22157064992987      0.68774264881910
  H   3.51508792934970     -1.80410047600451      0.73628035357118
  H   3.66263731450738      6.62786303629559     -2.66083095639956
  H   3.91057790963059      3.47757934425054      1.85558641549713
  H   4.63774638988667      6.38153876518295      1.36115361015284
  H   0.51210740499305      6.00356570115306      1.94011290327495
