27
Coordinates from ORCA-job 6145optt
  Br  0.96205035522027     -0.12786659161859      0.10592041526829
  C   2.83848524942925     -0.09131691890618      0.05086177799824
  C   3.57932536101154     -1.19023446762008     -0.13942492593440
  C   3.27619055871144     -2.63049406054872     -0.38971954263407
  C   4.65115679691222     -3.28499139301785     -0.16862498929398
  N   5.62071848827491     -2.19071820382748     -0.29649285614768
  C   5.00650820234398     -0.97329446707073     -0.14174001666252
  N   5.61113361561509      0.16059304122081     -0.00601252436087
  C   4.83337864620893      1.29280960898012      0.17419619898364
  N   5.25338401328215      2.48157723868042      0.31905855076313
  N   3.43214393547755      1.11341089719031      0.21327474156096
  C   6.99951672382144     -2.44817470944549     -0.27493193287942
  C   7.94114829241228     -1.49907429142408     -0.69836835393059
  N   9.24462963620423     -1.73477547092288     -0.71131326999818
  C   9.68674538752215     -2.92192289305300     -0.30408853525941
  C   8.83762506487346     -3.92884975446139      0.12173358808918
  C   7.47298304010593     -3.69205832044698      0.13289137000017
  H   2.93259195603507     -2.78718840117705     -1.41470404432758
  H   2.52127503555193     -3.03606481961895      0.28196067090368
  H   4.87166107853019     -4.06280961298236     -0.89911309686173
  H   4.71473410387456     -3.72262622017813      0.83204835640777
  H   6.26804537980645      2.48685427469534      0.28364883889199
  H   2.88882258890614      1.95050130650641      0.35766452131210
  H   7.61334005867771     -0.52608492361520     -1.03120275717853
  H   10.75974999851504     -3.07253317048996     -0.32872128686023
  H   9.23233874369410     -4.88389809498988      0.44066172994548
  H   6.79431768898183     -4.46676958185840      0.46153737220458
