26
Coordinates from ORCA-job 6146optt
  Br  1.10177535238835      0.13440487598086     -0.25371878688716
  C   2.96177758157044     -0.08506117926485     -0.13037864716950
  C   3.55161698118998     -1.28660120117860     -0.14422940469995
  C   3.06238594667295     -2.69538129201046     -0.15775698078223
  C   4.38449380301628     -3.50144021682337     -0.35286620579846
  N   5.42073695947008     -2.54530904971886      0.01288691030133
  C   4.98730229083957     -1.26421768026712      0.00118351288999
  N   5.74217908161769     -0.21932716253892      0.11133806814839
  C   5.12131612357817      1.01478434211514      0.11010716540839
  N   5.68330619799439      2.14947841165030      0.20845487629060
  N   3.70887533885817      1.03391873109185     -0.02035145053862
  C   2.43160435817870     -3.09757890699593      1.16188384809032
  O   2.52017200888185     -2.50884010985356      2.19691433759382
  O   1.76267511204570     -4.26465016807127      1.02572361228804
  C   1.36898862166101     -4.86582935966538      2.23799370350654
  C   2.55106426778538     -5.48925815016028      2.94340738113434
  O   3.66443223451105     -5.46238296538527      2.50838741927027
  H   2.35402494978792     -2.91902827709467     -0.95480393812833
  H   4.47960618919468     -3.80832003273362     -1.39693666272860
  H   4.41494176877115     -4.38525527354090      0.28309428258940
  H   6.40315897290185     -2.76178119099662     -0.00484628207252
  H   6.68582061092228      2.01613602795370      0.29785804043991
  H   3.28574412958061      1.94910651173001     -0.01248555128578
  H   0.64650245767507     -5.64609393825911      1.99374195309469
  H   0.89723920264044     -4.14527207079600      2.91078532792498
  H   2.31425945826615     -5.98920067516701      3.90061347112014
