22
Coordinates from ORCA-job 6150optt
  Br  1.07171816421785     -0.11288521991255      0.28259729061042
  C   2.93519521698841      0.03022519084154      0.09120054724966
  C   3.63526208597104     -1.13535224334486      0.12931984569947
  C   3.33389150145959     -2.52692612011012      0.20528223324878
  C   4.54810049323265     -3.14833624432707      0.15070729669211
  N   5.62542457404788     -2.27474415387000      0.05576580835651
  C   5.07665139960387     -1.09410306797088      0.05125681880472
  N   5.74816991167639      0.11803490622538      0.00206059181672
  C   7.17046181019198     -0.02078563752715     -0.15225073104872
  O   7.92479590534019      0.85264311353232     -0.44290576147083
  C   5.03818155494625      1.30816272808855      0.03523378618470
  C   3.63408142776011      1.28038396231657      0.00289942612831
  C   2.85377055046454      2.51892948779914     -0.20399362039085
  O   1.73420598814340      2.55497455307923     -0.63593203140493
  S   3.56660881960186      4.09642133063095      0.22727393617325
  C   5.23031073157135      3.73535907015288      0.34645439054749
  C   5.78927073310425      2.52574284977549      0.19583773070573
  H   2.35748373391585     -2.97365570267240      0.27478965040578
  H   4.74149701590667     -4.21011016187560      0.17376007773738
  H   7.45126422354888     -1.06467218522391      0.00672151432354
  H   5.85289496987794      4.59832735346370      0.54462711705470
  H   6.85975918842894      2.46136619092877      0.25629408257607
