24
Coordinates from ORCA-job 6154optt
  Br  1.05219745373910      0.39059645818638      0.34738035142121
  C   2.89972340501941      0.07860318392558      0.27992231255836
  C   3.42940747707081     -1.13658149145528      0.16735575781593
  C   2.89864246223290     -2.53007618585498      0.06962642154079
  C   4.17031773180072     -3.35092910337234     -0.26735105976199
  N   5.26753488016505     -2.43897376657269      0.02484796138798
  C   4.86726284441430     -1.15593218441056      0.13640519514235
  N   5.65912849132081     -0.13198932026033      0.21183852931452
  C   5.08737222727955      1.10058002525232      0.32193122556468
  O   5.63473926649276      2.15002840625129      0.39137731070868
  O   3.64292077206478      1.17178625351808      0.34951620956921
  C   4.20858939327421     -3.78265113758181     -1.74705530393131
  O   3.08917433590585     -4.63929041077682     -2.01907615871586
  C   3.23353094126825     -5.92303112325659     -1.66545801628809
  O   4.18973089243699     -6.38661036189239     -1.12249597359607
  C   4.13603425847146     -2.63865896072255     -2.65098187646322
  C   4.11148728883669     -1.67227364551142     -3.35510846344101
  H   2.13914761234002     -2.64192564292435     -0.70432301449752
  H   2.46728622137655     -2.86006331583036      1.01549855618489
  H   4.24615475529976     -4.25375568512467      0.33690945411863
  H   6.24008973816059     -2.67290657973293     -0.10056048157680
  H   5.12795831784454     -4.34410050593840     -1.92851777302805
  H   2.33778976989335     -6.48448392601564     -1.95163844226308
  H   4.09177946329148     -0.81236097989949     -3.98304272176421
