22
Coordinates from ORCA-job 6155optt
  Br  1.23857888954713      0.40952655758991     -0.02317990509750
  C   3.05342641065184      0.01322141832755     -0.03887484474983
  C   3.56823166482256     -1.22309799304172     -0.03269064613068
  C   3.11531641056329     -2.58728915529952     -0.01458488344470
  C   4.27360634091301     -3.30349972733104     -0.02175611453478
  N   5.45220953678832     -2.53182751612563     -0.04258425772093
  C   5.01571973097762     -1.31988977562262     -0.04870345102117
  N   5.75783016793589     -0.17276262731427     -0.06782518804368
  C   5.20875999588555      1.08335815695925     -0.07192908388951
  O   5.82252897293403      2.10149952879183     -0.08636927496113
  O   3.82883302642838      1.11634867004437     -0.05716983898065
  N   4.43109327556889     -4.67684578273721     -0.01057964475823
  C   5.65227741299726     -5.37145809140061     -0.01863746316453
  N   5.56106837362775     -6.63359853441012     -0.00130606811985
  C   4.14031714036056     -6.95197946241825      0.02209024967357
  C   3.40310634360412     -5.62324355481791      0.01815344137874
  O   2.22668607912711     -5.38755134858120      0.03528337878482
  H   2.10783240766832     -2.95863228832666      0.00115336870220
  H   6.76758169626838     -0.21762294417395     -0.07939683487320
  H   6.57036585383538     -4.80117879302414     -0.03723699287952
  H   3.88075950452614     -7.52840698577313      0.91155370558139
  H   3.85687076496843     -7.54606975131490     -0.84840965175084
