21
Coordinates from ORCA-job 6161optt
  Br  1.15413504350853      0.40348894181239      0.83915822116237
  C   2.92231695184431      0.09891342588101      0.30246248044510
  C   3.41523054433617     -1.16956015537742      0.13214358505778
  C   3.03521160535243     -2.51924041212359      0.22751582782554
  C   4.17896039791082     -3.22313531441984     -0.12474600343518
  N   5.26523731813011     -2.43319066083018     -0.44148145791533
  C   4.79872393248703     -1.22131468933689     -0.28454028355707
  N   5.43344913907860     -0.05091465208764     -0.45906340250592
  N   4.88673278626837      1.13824793243528     -0.27566523546365
  N   3.66196552512933      1.20720264634010      0.09669789220538
  C   4.28802432450096     -4.66749117034111     -0.17353629076213
  C   5.36070081420849     -5.45984600191517     -0.47749928075390
  O   4.94835357655022     -6.74987182761248     -0.37501102189946
  C   3.66232800127396     -6.67421991023149     -0.02052535577840
  N   3.20585817055798     -5.47931308331918      0.11760576300479
  C   6.75522277815871     -5.19816226087466     -0.85364417256838
  O   7.54221234982856     -6.08093370299949     -1.07416325601949
  H   2.08289708079296     -2.93269744770789      0.51033149202694
  H   6.40279422347833     -0.02069284915247     -0.75089765180240
  H   3.13700199662495     -7.60579434174586      0.11346674387135
  H   7.01264343997913     -4.13247446639341     -0.91360859313794
