21
Coordinates from ORCA-job 6162optt
  Br  1.31251295938645      0.49410165709351      0.62860391197126
  C   3.06201806566210      0.00809918157674      0.18121933251692
  C   3.53989419555015     -1.26528378426090      0.13046588290986
  C   3.09978419706351     -2.57988808441168      0.34049238626794
  C   4.23417109993326     -3.35401210542574      0.10945612288268
  N   5.34828541735033     -2.62406281348319     -0.23154629552556
  C   4.94830150678246     -1.38030088353778     -0.22230919955258
  N   5.72928995651576     -0.29845427555909     -0.49894737893441
  N   5.23127934086647      0.85798688720805     -0.44386574787307
  N   3.92012779227158      0.99658236645000     -0.10683629175129
  C   4.34984454341176     -4.82449855442046      0.17238824244058
  N   5.50995487326430     -5.33711857152986     -0.03773107400651
  C   5.72842922134896     -6.69011998326414     -0.13239164475770
  N   4.86980135692252     -7.63184930888908     -0.26722465915889
  S   3.25777697796222     -7.30579948300993     -0.13239536042681
  C   3.14847143220738     -5.65591499326676      0.47439000427440
  N   2.12458272084391     -5.20434046477406      1.06925435905759
  H   2.12574156878995     -2.91951256822511      0.63907572261756
  H   3.62574872790266      1.96216110127053     -0.08741522948163
  H   6.77349543385362     -6.97682388062246     -0.17696066057847
  H   1.41748861211063     -5.92395143891858      1.22127757710813
