25
Coordinates from ORCA-job 6166optt
  Br  0.98025993215325     -0.05416863370299      0.31902625099954
  C   2.85237118701961      0.03304454692733      0.17574683714828
  C   3.56768612221117     -1.09413227229988      0.13198582440683
  C   3.09880194814744     -2.51718393675146      0.17280830132434
  C   4.35590673948438     -3.33658369093889     -0.21339795274019
  N   5.44604146271850     -2.40661019898936      0.08171303430186
  C   5.02845482800238     -1.09445753171500      0.04469911565256
  N   5.81764824738791     -0.09680644364533     -0.04434207442287
  S   5.21544693604853      1.45244859202500     -0.01611735855620
  C   3.45235041164823      1.37946208383261      0.12905006478931
  N   2.73098678843657      2.41994313931732      0.18276327129800
  C   4.35346761819878     -3.76358087215287     -1.64060941223364
  C   4.43523980912131     -4.97721659593270     -2.18520533409019
  O   4.38641084149868     -4.88154675799914     -3.55789673728236
  C   4.28956691932861     -3.55159178477784     -3.89559521964966
  N   4.25509151682793     -3.05565007218497     -5.05098673747044
  N   4.23809260730991     -2.86768129876744     -2.70108279477556
  H   2.26366278514191     -2.69801191817750     -0.50276586459648
  H   2.77024018027350     -2.77008523753279      1.18293335720376
  H   4.44372012108034     -4.23172342910471      0.40130656428610
  H   6.38512828076447     -2.61824778076578     -0.22143833386706
  H   3.27464085646567      3.28095741640819      0.13462860940021
  H   4.51568157119286     -5.95955967834881     -1.75710422619196
  H   4.30853685895779     -3.77285616543300     -5.76550147717423
  H   4.27656543058020     -1.86316147928992     -2.66161770775996
