23
Coordinates from ORCA-job 6171optt
  Br  1.16601739316444     -0.02970176287506      1.01174309523486
  C   2.96271535991619     -0.01872299819625      0.46859974956497
  C   3.62024269081481     -1.16393963886177      0.15402009606287
  C   3.37285565753178     -2.56302038867574      0.06595390354463
  C   4.56091170079775     -3.09615820772764     -0.35327794636102
  N   5.57950248101209     -2.16494553818012     -0.54715924910723
  C   5.02001455155113     -1.04470917084238     -0.24411118444130
  O   5.64019750212903      0.14140626598416     -0.29642475156513
  C   4.95833938109723      1.24345728710445      0.03663093175918
  C   3.65240130972428      1.22173955286188      0.40224075383590
  C   5.75469285373506      2.46937566259202     -0.06167107965985
  C   5.58597721940653      3.57132507138158     -0.85020722786882
  C   6.69453657686702      4.40524931182554     -0.55053144613057
  N   7.47656346493870      3.86482962723805      0.35065040749604
  N   6.90713820675148      2.68124592777672      0.65198083008464
  C   7.43013078643980      1.93593465220875      1.72295663840368
  O   6.88170625768873      0.98445430440749      2.18308904897231
  H   2.45146914753629     -3.07645541729129      0.28045497770164
  H   4.77186966548661     -4.13836387437453     -0.54138881514176
  H   3.16561636796432      2.14686489220640      0.66909127858224
  H   4.79929149951906      3.73382013787920     -1.56690006383084
  H   6.93856982404589      5.36977704977177     -0.96601791246947
  H   8.37924010188171      2.36453725378677      2.06727796533304
