21
Coordinates from ORCA-job 6172optt
  Br  1.06912965397549      0.04233151017824     -0.06090467067203
  C   2.93058644108590     -0.14416840992079      0.05320871019412
  C   3.52309016255865     -1.36913080478332      0.10512511058989
  C   3.15537404433631     -2.73992657478836      0.11155595385028
  C   4.35155191621804     -3.41387452776979      0.18726568268719
  N   5.47668332191232     -2.59300258867191      0.22874969498400
  C   4.97787799174118     -1.40549783124024      0.18171104156925
  O   5.71468869276103     -0.28818812670765      0.20084487466605
  C   5.08950314790552      0.89039510919583      0.15616080476232
  C   3.74474258915666      1.01969914538225      0.08387387222121
  C   4.52874976628777     -4.84516594507284      0.23024627385657
  C   5.65106299055819     -5.61824286618135      0.28800094251962
  O   5.25362592765682     -6.89663235148185      0.31281972234028
  N   3.87214161833956     -6.90030333213926      0.26882085720972
  N   3.46703918109413     -5.72314868328010      0.22113861146734
  C   7.03425040528419     -5.34552566848638      0.31843570908292
  C   8.21226506706044     -5.13646913144293      0.34396419653144
  H   2.16656907850776     -3.16307483763816      0.06908689558854
  H   5.77980984150829      1.71935553465495      0.18372831818824
  H   3.30912465765048      2.00599024749995      0.04930305541706
  H   9.25713350440122     -4.93641986730627      0.36486434294600
