20
Coordinates from ORCA-job 6179optt
  Br  1.42147891839092      0.38212510022647     -0.33926537585748
  C   3.16556447727689     -0.05277316351957      0.15346518578539
  C   3.66970616708956     -1.30504802237254      0.09182786777273
  C   3.27457765859097     -2.61143579461984     -0.27855244222662
  C   4.39007888294927     -3.38482743307251     -0.04392774867883
  N   5.49365206431963     -2.68106402861432      0.45514462213314
  C   5.06180471991034     -1.47271484629194      0.52897165583161
  O   5.79674576888311     -0.45441704915448      0.96466572893674
  N   5.28050462574239      0.79399995158628      1.00558533800277
  C   4.06222333060220      0.96053061951152      0.63183795970106
  O   3.61335819865255      2.25275088957022      0.75657268960169
  C   3.61125436834385      2.97908018724652     -0.38191679116873
  O   3.98582732504958      2.59330407632542     -1.44331748371930
  C   3.05242692450703      4.38721772259966     -0.16555660362471
  O   2.63314171934543      4.76615318334713      0.88062339233702
  C   4.49463149319314     -4.78410841138998     -0.26215521082108
  C   4.57563172073631     -5.96538151195609     -0.44797828789451
  H   2.32205178516734     -2.93489475315138     -0.65981124697308
  H   3.07671983842583      4.99483857480829     -1.08429857764851
  H   4.65562001282364     -7.01433529107886     -0.60891467148932
