27
Coordinates from ORCA-job 6185optt
  Br  1.42111082049808     -0.53586179905913     -1.29528908137551
  C   3.07164009343211     -0.18791388667953     -0.44543281299739
  C   3.83797206255051     -1.22997693759166     -0.01161614570036
  C   3.72432155189611     -2.64790534515800     -0.00861219862381
  C   4.86627278796124     -3.09435740468426      0.59843061275630
  N   5.72484818863363     -2.08007904290896      0.99594888019881
  C   5.12034032858760     -0.98464677255403      0.63715313662583
  S   5.74665590108194      0.59113132077579      0.88468262500069
  C   4.48339351173047      1.53485641619169      0.20261288721536
  N   3.38107575212236      1.11269080171790     -0.33526567436276
  C   4.72819068800173      3.02577952618593      0.14397396681218
  C   5.14560526811872      3.38790464323122     -1.29226367005993
  N   5.56841920049508      4.76476085770954     -1.41439980936610
  C   6.70090751244976      5.03230373314512     -0.54323005610058
  C   6.50744318628069      4.59654072611159      0.89684171456692
  N   7.02218596525214      5.15198354673775      1.91463403397935
  N   5.75106612661863      3.45000592380006      1.07641032123529
  H   2.90750513183211     -3.22850770348459     -0.40232440436765
  H   5.14597061557716     -4.11985454209707      0.78871029156746
  H   3.76098101830301      3.50068324064716      0.34829690949692
  H   4.31028886248953      3.18059618946198     -1.95879829860910
  H   5.98449986473175      2.74882794159347     -1.58571279695989
  H   4.80179278460499      5.39738744214990     -1.21434647612776
  H   6.93791233581753      6.09495092340830     -0.56000009977991
  H   7.56765787639988      4.49404959341011     -0.93969492011591
  H   7.59158422484203      5.95002231720370      1.64708692779249
  H   5.55435833969110      3.28962829073601      2.05720413729906
