25
Coordinates from ORCA-job 6187optt
  Br  4.54118146728594     -0.02855592419139      3.39285232636178
  C   4.30915157488712     -0.18348717859217      1.53451174844703
  C   4.24669016411579     -1.42976646618551      0.95717939368547
  C   4.32395413177589     -2.74811968202466      1.41267607405439
  C   4.17505230251721     -3.52866465021914      0.26334216173989
  N   4.01344432305898     -2.78481740093929     -0.89268222400648
  C   4.05643315527678     -1.54380556850826     -0.49123116821680
  S   3.92901749657679     -0.15150673965988     -1.42573418877285
  N   4.06071287629149      1.11315774391122     -0.36713660099844
  N   4.22144979878437      0.99487460648191      0.88854256304628
  N   4.14071896105214     -4.89710014284444      0.10612487939630
  C   3.99028557395109     -5.37925142300672     -1.28234476922094
  C   4.08985545247336     -6.88639172790911     -1.35693974793640
  C   3.30319986129233     -7.45519274823694     -0.20522110072045
  O   3.92858052559932     -7.05271159852238      1.00806174007927
  C   4.27471864448048     -5.75795083233307      1.19973063136351
  N   4.69739197692077     -5.36230268493483      2.32058290837395
  H   4.48614302380824     -3.08961610502015      2.41520504510149
  H   4.74880264032579     -4.89455270438061     -1.89294072574156
  H   3.02048027888529     -5.04387141956005     -1.65286374398681
  H   5.12591914912017     -7.22041463366670     -1.27579041720476
  H   3.69573269390711     -7.22673080841206     -2.31423055040137
  H   3.30487883359883     -8.54230903748251     -0.18188965056089
  H   2.26683372289083     -7.10278969867535     -0.22053496388217
  H   4.67037137112380     -6.13312317508787      2.98173038000056
