20
Coordinates from ORCA-job 6188optt
  Br  0.99315350773176     -0.13981974880826      0.18097608343556
  C   2.86439706281854      0.02716255338496      0.07429830771971
  C   3.41861522115552      1.24611758231437     -0.08208877958166
  C   2.87158080844323      2.58153502812228     -0.21355860638544
  C   3.93617551755975      3.39833734207811     -0.35432540915505
  N   5.16914358051538      2.70046821517273     -0.32048755793323
  C   4.85910303215050      1.46763274745913     -0.16840211481568
  S   6.07055629880452      0.18034948921193     -0.07182666139501
  O   6.71721338572097      0.03395986697987     -1.33480383955987
  O   6.82906305687389      0.30836063672962      1.12985334809456
  C   4.98369727781425     -1.22538018737243      0.13782495830299
  C   3.64198973511424     -1.19343579512188      0.18697440199964
  N   3.03455718749052     -2.46201963225606      0.30089259675902
  C   3.75787212976303     -3.47392995667082     -0.30587152133505
  N   5.01774804264393     -3.49458990362573     -0.42907111843586
  O   5.65413553335852     -2.38453063148219      0.24103724661132
  H   1.82694417789912      2.84472192226133     -0.20684810112145
  H   3.94789128725124      4.46800255462900     -0.48922444720201
  H   2.03355340383872     -2.49268330963666      0.17809985004537
  H   3.21660975305229     -4.30525877336928     -0.73944863604785
