21
Coordinates from ORCA-job 6189optt
  Br  0.75760792328820     -0.10702241544661     -0.56187115608144
  C   2.60836216847482     -0.01514584690233     -0.31328262607359
  C   3.42145174645473     -1.09723526182363     -0.14348056517415
  C   2.94216804144443     -2.44495722868506     -0.20011787284483
  C   3.82044740872241     -3.45827419261652     -0.10033977002860
  N   5.16830675389683     -3.25071088357348      0.06850473968414
  C   5.63699594833698     -2.05601789999323      0.16366730865506
  C   4.83232198337418     -0.83974363267881      0.07030689428946
  C   5.31948480322867      0.45331620115352      0.09047812660442
  C   6.66510823219091      0.94083374664886      0.34800802823459
  C   7.62464928570387      0.42493237345348      1.12115199947330
  S   7.59706800546094     -1.11834867623836      1.94731607704369
  C   7.11758574914484     -2.05215841992401      0.44243367349976
  O   7.90813473382608     -2.66263173648583     -0.19160216455874
  C   4.40601267533280      1.56111779027368     -0.17864695091213
  O   4.66728471084388      2.71997702317975     -0.27506787139980
  O   3.05280843384042      1.21713127655178     -0.33040627778046
  H   1.88749405777035     -2.63186665261505     -0.33879408818092
  H   3.51224204695676     -4.49311825354826     -0.14933920521978
  H   6.85464843609543      1.92405708974934     -0.06526049801848
  H   8.53581685561239      0.98886559952077      1.27434219878849
