23
Coordinates from ORCA-job 6193optt
  Br  1.18408280514693      0.47035257220779      0.61685587847206
  C   2.97591810451893      0.08656888924268      0.20180006178725
  C   3.51206611966028     -1.13635669570193     -0.01798268537572
  C   4.96173282844848     -1.10517074317182     -0.15245861772262
  C   5.66594295056530     -2.42328061515769     -0.33255512591131
  N   4.99342984292619     -3.46028726127754      0.42094248798122
  C   3.62718894281880     -3.55618805803852      0.18268011749067
  C   2.87548443226770     -2.44880344936690     -0.05451749196581
  N   1.52378791009123     -2.62113831113874     -0.29732475067591
  C   0.89999653581095     -3.85245667114904     -0.27318421228366
  N   -0.33113586315484     -4.10560692144682     -0.49782721670580
  C   1.82071172282041     -4.95036205142913      0.04813659834920
  N   3.07809169240297     -4.81446577322954      0.24957208155304
  N   5.68318140601616     -0.04138746137082     -0.16360520915216
  C   5.08491710338606      1.19395810142225     -0.06601441450573
  O   5.61281663240800      2.24897300720356     -0.15315258682409
  O   3.69217061513913      1.19933496771593      0.18577547257222
  H   6.69612279589779     -2.31209047203297     -0.00521494490761
  H   5.66205991328934     -2.62674592793379     -1.41610087081936
  H   5.44001095866583     -4.36587840460211      0.39310033179804
  H   0.95863152502691     -1.81444246382271     -0.50835994633639
  H   -0.87366948591805     -3.27143503166934     -0.71216682636290
  H   1.37646051176545     -5.93809122525278      0.10660186954538
