21
Coordinates from ORCA-job 6195optt
  Br  1.37981445724637      0.17665476549992      1.49262050851795
  C   2.71964036375975      0.07713576770213      0.08701921136541
  C   3.50745458345753     -1.18396898200394      0.08414752834427
  C   4.90413860915960     -1.12398777272438      0.13555655266086
  C   5.61813580818618     -2.32507992821595      0.21538876936397
  N   5.04364832528901     -3.51098302873665      0.20966462263218
  C   3.71642951390943     -3.58549830373909      0.11463636334989
  C   2.91766690594775     -2.44294557431952      0.04365608900628
  O   1.57955398407433     -2.51988631438413     -0.09693410283622
  C   0.90758870392225     -3.73446253770713     -0.11609835999508
  N   -0.34380038853918     -3.76166426785904     -0.23056418656402
  C   1.72470413287803     -4.93869891475612     -0.00977318088489
  C   3.05469616147048     -4.87359723903286      0.09439161235531
  N   5.62494865886274      0.05036990547745      0.16166573035396
  C   5.57063204667679      1.21778534367147     -0.12626509991869
  O   5.66305787702078      2.34710716535269     -0.35535538230914
  O   2.91999239037242      1.00516728577498     -0.61433713982101
  H   6.69810141750291     -2.28328068381395      0.28622098072901
  H   -0.73701009745619     -2.82388958991329     -0.29212951696438
  H   1.17625101710652     -5.86913159875237     -0.02496713551329
  H   3.67635552915246     -5.75614549752017      0.16745613612763
