26
Coordinates from ORCA-job 6197optt
  Br  4.19397499871626      5.90468760751735      3.93608440665211
  C   5.07092894880706      5.43408771730308      2.34537089792449
  C   4.86142928944207      4.27924348489313      1.69257684736415
  C   3.91863079042963      3.20634647530812      2.20878433107364
  C   2.62975419641674      3.31929559976224      1.50667125768189
  N   1.62756936724840      3.39259817307265      0.95689337658499
  C   4.50834342449843      1.82193064189485      2.01207110191097
  C   5.20215829521337      1.17304574962351      3.18351377781229
  C   3.86247211202814      0.68226485603404      2.73855724498612
  C   5.03891370416876      1.63926744861394      0.64871797495418
  C   5.42532983619567      2.69069546186470     -0.06117069328374
  N   5.42330178578059      4.00761173108488      0.45063635620581
  C   6.01064326008737      4.99937866262017     -0.30275633714974
  C   6.32891908550747      6.21775820147977      0.13569713267475
  S   6.25112895822671      6.63306273385580      1.81400945555658
  O   5.70190952395515      7.94724209436689      1.96621366035992
  O   7.50457091070856      6.32856158546864      2.44042712173830
  H   3.73306882919378      3.38553449947696      3.26623245531988
  H   5.26066519667314      1.74397374598066      4.10060245546560
  H   6.07080631259748      0.56953365188794      2.96408131470925
  H   3.00170721030464      0.91103159731481      3.35246950645043
  H   3.80957371888812     -0.26266472211918      2.21638213956007
  H   5.09850244508753      0.65079411482042      0.21494664593380
  H   5.80352825346905      2.61453171792051     -1.06954537479153
  H   6.18783218147600      4.72566899840169     -1.33470219794226
  H   6.72133736487979      6.98351817155235     -0.51676485775199
