29
Coordinates from ORCA-job 6199optt
  Br  10.09298512849391     -3.70777941253919      1.16619186952878
  C   8.22767870767898     -3.89529004605309      1.30759233799293
  C   7.39728991409852     -3.86985445971438      0.25164036024317
  C   7.88436864670097     -3.74695905121308     -1.15891008125272
  C   7.91221504237578     -5.12760671471171     -1.82741615905342
  N   6.65138644703043     -5.85282785440655     -1.75940087944160
  C   5.43265797933043     -5.08631660576244     -1.87977866158636
  C   5.37011271670041     -4.23521867949122     -3.16915615851877
  C   4.89933392491297     -2.88120157238967     -2.72158836272868
  C   4.78553713433535     -2.77772492146397     -1.40491218275336
  C   5.06787963553703     -4.08400737708136     -0.71069233382946
  N   6.01526237808498     -4.02741393598930      0.42249441230087
  C   5.47313032610062     -4.02275803639803      1.67368877951421
  N   6.06735441398991     -4.01183308530130      2.80148546432442
  S   7.68016796737547     -4.21483944971029      2.94220359920803
  O   8.19909020930650     -3.21568296980601      3.81623126413082
  O   7.92196139524405     -5.59353545817236      3.23350829703919
  H   8.88337839293321     -3.32081074281361     -1.16198432923939
  H   7.24054576444445     -3.06695432138528     -1.71228809392888
  H   8.67367916522637     -5.74296721321424     -1.34718945603174
  H   8.21713964940694     -5.00135337949965     -2.86879094281356
  H   6.61948762190539     -6.46585639031006     -0.95643906795920
  H   4.62188650713429     -5.81305315369114     -1.91105640954803
  H   4.69321378671167     -4.68125766004727     -3.89868949727358
  H   6.34345150193551     -4.16638172135763     -3.66153200042273
  H   4.70385246642667     -2.07811907876626     -3.42033521997141
  H   4.48448113989891     -1.89079416167695     -0.86191020341809
  H   4.14636822195105     -4.44368358487289     -0.25244725297507
  H   4.38610381472898     -4.00291896216096      1.68248090846365
