27
Coordinates from ORCA-job 6213optt
  Br  1.32335031423915      0.12804790506713      0.46977055026166
  C   3.22111436386904     -0.01884317018831      0.33218568481180
  C   3.77816152637467     -1.30092144619588      0.14148490154191
  C   3.03988028325245     -2.57289885333786     -0.16546723917733
  C   3.98258264694635     -3.78259456867790     -0.37018348801170
  N   5.31366844449709     -3.51449299215129     -0.94308901643365
  C   6.02382196756300     -2.47777764839992     -0.19804410967566
  C   7.21695579964748     -1.79289219408796     -0.88517293137287
  N   7.20695554524948     -0.44945954592059     -0.27047430438990
  C   5.90252122661971     -0.13451893356685      0.04235593780938
  C   5.14124873877307     -1.29762754339662      0.07678347726707
  C   5.24278912794912      1.07389361693662      0.23293939758778
  N   3.90422516415490      1.08587182852414      0.39935947654282
  C   5.96235527514217      2.30845643990777      0.20282846462632
  C   6.63279137122452      3.30218328113040      0.15742673292230
  C   6.49620197978559     -3.09506694147400      1.13071427115241
  O   7.64347930212878     -3.19745914462114      1.44647087146279
  H   2.44564825640671     -2.39295102234990     -1.06640804799623
  H   2.31907410995940     -2.80380793591764      0.62157430948532
  H   3.49522209640933     -4.51015138433728     -1.01751792336068
  H   4.13057100597189     -4.28462053933602      0.58548714207312
  H   5.22009227163780     -3.21541894471554     -1.90864521272015
  H   7.04029017282967     -1.73617276038656     -1.96588242736956
  H   8.15052418403891     -2.31014736888610     -0.68264496258614
  H   7.79227779788263      0.27272438914958     -0.66173552413098
  H   7.20650453402146      4.19792097245306      0.13100321646722
  H   5.69069249342555     -3.44427549522134      1.80188075321295
