26
Coordinates from ORCA-job 6219optt
  Br  0.95336798919322      0.01296179352886      0.11359490684262
  C   2.81356503365388      0.15048771419806      0.00719273569674
  C   3.42854340575119      1.33202429903145     -0.07250260151726
  C   2.91396059151541      2.73610642221958     -0.12792961089449
  C   4.17980698088306      3.59216261169724      0.06120981460992
  N   5.29169297324082      2.67022127349317     -0.19880059302830
  C   6.61354091121098      3.07162281425918     -0.12227703688457
  C   7.72910675442265      2.32843109478637     -0.06380760645175
  N   8.88929409236001      3.10107195592775     -0.03277525530582
  C   8.73142842369611      4.46477220676743     -0.04232411475500
  N   9.57621531264978      5.40778990331635      0.00295072745222
  S   6.98842357305246      4.79405697683846     -0.13567921487404
  C   4.87182645265532      1.36041902222689     -0.13695883570346
  N   5.63286553427900      0.32748229555952     -0.12894271005515
  N   4.96483085985608     -0.86138055579929     -0.08171039341762
  C   3.60549808526786     -1.09216465860582      0.00692791277857
  N   3.04497293288210     -2.23544246873695      0.07620868822826
  H   2.16046276278218      2.92810197760421      0.63429284979450
  H   2.45088691166828      2.91660359365327     -1.10023417405157
  H   4.24824880934393      3.98389769350481      1.08001719966252
  H   4.22000500797475      4.43232421671272     -0.63182571368009
  H   7.78672705342122      1.25581253893131     -0.05260119138370
  H   9.80606001115890      2.69362558986021      0.03719177548503
  H   10.53303590414077      5.06757997186614      0.05501004012863
  H   5.57597690940679     -1.66039879729963     -0.07588578446240
  H   3.71965672353316     -2.99716948554132      0.06565818578622
