24
Coordinates from ORCA-job 6221optt
  Br  1.08878394641142     -0.00391157094659      0.26932458343755
  C   2.91785141018740     -0.15243862395492     -0.08783457448563
  C   3.60364637370878     -1.28201248379338      0.19555504172885
  C   3.26560210280568     -2.55821440156724      0.77739767565516
  C   4.39880067927945     -3.29598870744913      0.79879757050705
  N   5.47762495815078     -2.60213570662661      0.27852202131048
  C   6.78427914193958     -3.05247818895268      0.17039030365314
  C   7.61293764841187     -3.57237976761857      1.09108339449818
  N   8.79221200110974     -3.89780793348195      0.43203740940686
  C   8.73256652548199     -3.56636320031184     -0.90777716309377
  O   9.58042375590157     -3.71161651227252     -1.75743810589502
  N   7.46298987525351     -3.02810902288109     -1.04612188704647
  C   5.01918525612641     -1.33755211044537     -0.10580905921367
  C   5.64738591363503     -0.28579644239320     -0.63990468554376
  O   4.95277482728224      0.83635995457388     -0.91792656425271
  C   3.59115825304528      0.99565056115778     -0.67997922648180
  N   3.02297328782126      2.08349537121037     -0.97124531197653
  H   2.29184036818754     -2.86659302489997      1.11498539074747
  H   4.55365621979162     -4.30641108411892      1.14420969822826
  H   7.46174481228113     -3.72360012962863      2.14425930487201
  H   9.60842720230016     -4.32190457644888      0.83559121966622
  H   7.07400279516795     -2.77783743004283     -1.93955912556468
  H   6.69689447546537     -0.21049656909291     -0.88325313137081
  H   3.68223817025419      2.74914159998523     -1.36630477878638
