19
Coordinates from ORCA-job 6223optt
  Br  1.14524346201004     -0.09272659582329      0.12751075666260
  C   3.00193660943919     -0.18650727472998      0.06286246370352
  C   3.67928851139778     -1.32198187868911      0.00961112879579
  C   3.17393852012109     -2.77556337473294     -0.00846758047783
  C   2.38690096462740     -3.09336408909499     -1.20781778805557
  N   1.77708701323908     -3.34829046072565     -2.14219088247311
  C   4.50926388170959     -3.46505786300292      0.02861865635218
  C   5.52709000730819     -2.59558697255012      0.02494161432125
  N   6.68798542607796     -3.29686570396819      0.05335110356753
  N   6.40537703277599     -4.52402461782090      0.07326718800177
  O   5.00448580549774     -4.68387626058404      0.05595045993662
  N   5.09572074859906     -1.27567686829520     -0.01041341544357
  C   5.83688442400932     -0.11328109245150      0.07080562034390
  N   7.08882901027677     -0.00086430587491      0.13239385538122
  C   4.99720192887354      1.15819997291930      0.07729474666042
  O   5.45462559714295      2.24297564185649      0.08923170176403
  O   3.61980929868682      1.01952268748280      0.07762738709452
  H   2.55894130313345     -2.98882865780543      0.87048936562546
  H   7.57339045507398     -0.89820228610938      0.12393361823928
