24
Coordinates from ORCA-job 6224optt
  Br  1.04146382982581      0.08183665759993     -0.12588195033924
  C   2.90976028549682      0.15557134486192     -0.01738217342931
  C   3.55272041055793      1.33333869071500     -0.00504803029849
  C   2.99775139282740      2.72712492149264     -0.06756383884326
  C   4.22182493050797      3.63034328882930      0.15688327876444
  N   5.37993452299921      2.73756853073462      0.03578154689254
  C   6.63517627676983      3.24236193912496     -0.00406695816243
  C   6.99162532174848      4.57559663319041      0.10255864957155
  N   8.31930050809204      4.79913602560989     -0.02425015205809
  N   9.03319586054362      3.76828450227850     -0.21008189080826
  S   8.08178120896466      2.36648750951669     -0.25318195431924
  C   4.98664445234725      1.39651894495932      0.05264289910394
  C   5.69789478130701      0.25504997182675      0.11847863169920
  N   5.01629477586769     -0.94324777485726      0.11124287262094
  C   3.63718410949223     -1.11779431245961      0.04549353564386
  N   3.03319783999772     -2.24067990151139      0.03980133905687
  H   2.22253544339224      2.88081027676786      0.68192036987306
  H   2.54178003578546      2.89866366821699     -1.04427454736547
  H   4.21263753687361      4.09101570475454      1.14851896304245
  H   4.29969320964930      4.42301547233348     -0.58779993608051
  H   6.32386878286812      5.40407263070004      0.27356140537626
  H   6.77076884515129      0.18317968778096      0.18983625801384
  H   5.56223945243796     -1.78809742044922      0.16045819836587
  H   3.67472618649627     -3.02815699201634      0.09135348367946
