25
Coordinates from ORCA-job 6231optt
  Br  2.57648049114060     -0.81509770903657     -1.89081594745969
  C   3.17085518951516      0.16145695471094     -0.39904628717166
  C   3.17955406523266      1.49857770617492     -0.35051939809242
  C   2.71266175880885      2.43684315552645     -1.44053251310377
  C   1.18587620512057      2.50858175816122     -1.79383931469708
  N   0.29865807134407      3.43585590406648     -1.06415712610378
  C   0.21091931328724      3.06518824001218      0.29033391096683
  C   -0.76399176190193      2.43623310513783      0.98710376990705
  O   -0.18674226380391      1.87189897429466      2.09135748570831
  C   1.12386262971185      2.16855725124177      1.98383422772504
  N   1.37806684383642      2.96066984698456      1.00131725181400
  N   2.00111971387073      1.26028472158299      2.55142011756596
  C   3.11673771551348      1.15766238987143      1.95933589549243
  O   3.73337661592484     -0.07370993147233      1.97770848411863
  C   3.72563085805193     -0.67753930412842      0.72706218159212
  O   4.13717191670011     -1.78151707408373      0.61360806728476
  C   3.78496995874559      2.04048220962901      0.95102810037079
  H   3.21174497191415      2.12218310746486     -2.36200105166144
  H   3.06430568224633      3.44261321821944     -1.20526752160957
  H   0.74897204160033      1.51374705906699     -1.70647490435326
  H   1.12637456143086      2.79352496562985     -2.84423249584727
  H   0.61175618608542      4.39444666024151     -1.17011109162426
  H   -1.81483749034982      2.26989881524572      0.83963524526829
  H   3.58459936230242      3.09254905478847      1.08052079214592
  H   4.85887736367203      1.84760892066973      0.97473212176405
