24
Coordinates from ORCA-job 6232optt
  Br  1.35992195047825     -0.24373857726750     -1.02727074308666
  C   3.12847531649059     -0.27949566485706     -0.46076347082274
  C   3.81216103706168     -1.37185369973534     -0.13792970363406
  C   3.51818979313640     -2.77917410863111     -0.07673109174057
  C   4.60867035604432     -3.40798530414003      0.40762373560157
  N   4.76597336701840     -4.75268948643672      0.68424390500363
  C   5.62694462953201     -5.42109872554971      0.05637946000721
  C   6.55961834377950     -5.04061530871857     -1.07601958860820
  O   6.97788594401207     -6.29544094222297     -1.57227492418101
  C   6.90211775739665     -7.17786728562269     -0.49330857444533
  O   5.82574143258981     -6.72016851509522      0.32090559265962
  C   5.66939134146239     -2.40665045365519      0.74363488299688
  N   6.79219021850574     -2.54464156756285      1.31311784497649
  N   5.15001031659131     -1.20698722851023      0.28530040376988
  N   5.60562917785465      0.02263271209219      0.67694570850555
  C   4.89047182763685      1.00188279544282      0.33571011727151
  O   3.71252790977229      0.96260246075157     -0.37404710168853
  H   2.58778748913606     -3.22680180461511     -0.38609175264735
  H   7.39694159567790     -4.44390997079576     -0.69689280813484
  H   6.04590879783716     -4.48646562083954     -1.85926311155543
  H   7.81839057426491     -7.16383630086072      0.10688010693733
  H   6.67486349074066     -8.17830590128244     -0.85107197082370
  H   6.92254955234894     -3.51555051643583      1.58935403000690
  H   5.17863778063139      2.01115901454803      0.58756905363185
