26
Coordinates from ORCA-job 6233optt
  Br  1.19994567067978      0.22832265994176     -1.22866567756528
  C   3.02674878303602      0.13852077484959     -0.71649632452783
  C   3.67895314134314      1.24890006170791     -0.16020631778616
  C   5.03867086606617      1.10410494987885      0.10470957814983
  C   5.85499286416409      2.26734734358933      0.61907801159314
  N   5.28033936682007      3.56286251306661      0.30704817403585
  C   3.91827211837469      3.62652236429375      0.78371423444578
  C   3.24026482162651      4.91714507199565      0.30451853426910
  O   3.44285896503067      6.01815657613572      0.71660385159591
  C   2.27074286340893      4.52044807250721     -0.79952049233155
  O   2.55715284116366      3.16255029950952     -1.06729467465219
  C   2.97887265915204      2.55470453374149      0.15771007042047
  C   1.84908033466655      2.37290094685951      1.08758431100412
  C   0.98548186416150      2.32611880178125      1.91554014028553
  C   5.64782934157367     -0.12228135374415     -0.13627763287449
  C   4.88823909374591     -1.15479437392256     -0.64538555351664
  N   3.59757964925122     -1.01922060325344     -0.94602186335897
  H   6.86157392429968      2.21178724727530      0.20391080335551
  H   5.95330998774749      2.19140253140667      1.70680880259325
  H   5.31609838988545      3.72729291136733     -0.69485475230952
  H   3.91769728934212      3.58127249490965      1.87298424022379
  H   2.42456140696479      5.10706575018844     -1.70309790465666
  H   1.24301908297687      4.65724732396344     -0.44492988607074
  H   0.20407130153564      2.25330510070147      2.63442076352507
  H   6.70300577130749     -0.26130018464030      0.06262672656495
  H   5.32163760167580     -2.12938181411005     -0.83750716241229
