24
Coordinates from ORCA-job 6237optt
  Br  1.02572041760760     -0.03288462108711      1.13400081746050
  C   2.77548570200450     -0.07412392828287      0.47687512839696
  C   3.40935788775943     -1.23523035297176      0.31064223618902
  C   2.95038296271667     -2.67107532032805      0.60388536796347
  C   3.12812390425866     -3.00318162126831      2.01993226835061
  N   3.32921772991099     -3.30169112762164      3.10734334242277
  C   3.96017751503102     -3.40754145912778     -0.28571788169295
  C   4.65598912722209     -4.77054515620017     -0.31088827348190
  S   6.07925954840901     -3.85865617700116     -1.06008887200170
  O   7.36435438554535     -4.20605564548730     -0.54809824293064
  O   5.86239760315455     -3.67440712518099     -2.46207442675591
  C   5.21847178476489     -2.58932406745612     -0.05207056730954
  N   4.72649070615406     -1.24878572435695     -0.17960699017345
  C   5.37710899069692     -0.06328577887580     -0.35767405959745
  N   4.82721959164465      1.07874312295509     -0.22524083362196
  C   3.47157393307479      1.19080986972018      0.15521153495375
  N   2.86723076553871      2.29937471630802      0.24107438109070
  H   1.90842505949025     -2.81500810020901      0.32329089098751
  H   3.65022809458606     -3.19297805804895     -1.31091028786728
  H   4.24181150556291     -5.53494568400063     -0.95937801134202
  H   4.95240542427872     -5.15620322943834      0.66267942637752
  H   5.63477941070283     -2.77767873459799      0.94573459467143
  H   6.42020502588616     -0.14198021369847     -0.64989180260921
  H   3.50758292399905      3.05165441625613     -0.00902973948022
