28
Coordinates from ORCA-job 6239optt
  Br  1.04472273416132      0.04155402909965     -0.31773132812628
  C   2.91073850609429      0.00133199774695     -0.08044547549538
  C   3.57503280665917     -1.19846507289144     -0.02308404342811
  C   3.07094548037090     -2.60525771433398     -0.16294096881715
  C   4.30542461409834     -3.45456643518897      0.19616050726455
  N   5.42918711444996     -2.50388229238271      0.18217453153040
  C   6.73056289026452     -2.89401449973492      0.39260937216347
  N   7.69699217956841     -2.08242280952524      0.54583227508508
  C   8.93567056320862     -2.85108273555273      0.65942882885812
  C   8.51942617813684     -4.30788017764970      0.93568942483521
  C   7.08995657768393     -4.36555413003531      0.38928170459255
  C   4.95865291070486     -1.19939626632161      0.15016326941295
  C   5.64322869792824      0.01314025722049      0.25080728904497
  N   4.98480460570834      1.16452703116804      0.18998935285343
  C   3.66709760310167      1.17683871893899      0.03306655182616
  C   3.03062951126415      2.46922076987889     -0.02496377829567
  N   2.51245377713958      3.49086823992883     -0.07466123494198
  H   2.73975081048015     -2.78073841236025     -1.18864919192651
  H   2.22366362247430     -2.80670270251184      0.49075116143860
  H   4.47786162344628     -4.25849870636908     -0.51765415108443
  H   4.20321249193696     -3.89380398385122      1.19142716461665
  H   9.56318041095086     -2.43420276915191      1.44650427520639
  H   9.49099497252757     -2.75941542728073     -0.27860598572979
  H   8.50784062401418     -4.49141075524368      2.01030900016521
  H   9.18414286163394     -5.03685979445846      0.47691731225535
  H   6.41563029349120     -4.97340222959714      0.99178027487526
  H   7.04621650900634     -4.74377757793789     -0.63639352709974
  H   6.71297902949502      0.04585344839702      0.38123738892066
