30
Coordinates from ORCA-job 6241optt
  Br  1.97762916119650      1.34369708875780     -3.21351202604719
  C   1.82808230735960      1.07205554400001     -1.33772337139709
  C   2.06835938426406      2.06119975018575     -0.45137316430469
  C   2.55224011499424      3.44815765159293     -0.79327149456783
  C   1.46996769048464      4.43472265255792     -1.26817417877610
  N   0.47461465358343      4.78433561841154     -0.25641273426203
  C   -0.15751080608540      3.69378680852970      0.35338537371119
  N   -0.02051711119544      3.49143191653202      1.60674198959387
  C   -0.69658359841239      2.31627474531477      2.11136756243058
  C   -0.51911267040103      1.12059271602414      1.15019792894241
  C   -1.18328625929807      1.52450285957422     -0.17427496001090
  N   -0.87749234854385      2.90738105651810     -0.50088033653066
  C   0.93086372651633      0.68567296030510      1.16414405037369
  C   2.04062844536339      1.40121766525581      0.87817690161922
  C   1.18147048548084     -0.73814761792620      0.84503129930426
  N   1.17211094486206     -1.79494669998045      1.50657859524893
  S   1.46967898157237     -0.66152629859978     -1.00344485337817
  H   3.30889186202351      3.38105812534305     -1.57915221771294
  H   3.02780645079624      3.85880003135976      0.09911027415908
  H   0.97396833410719      4.03375823888199     -2.15324015447440
  H   1.95238950177265      5.36081662809538     -1.58072359070271
  H   0.88594456864019      5.33887888633678      0.48523850968839
  H   -0.28819352636104      2.07458999272499      3.09176775159805
  H   -1.77148463225565      2.49680884450887      2.23249625979448
  H   -1.08643371865341      0.27030083650525      1.53494913114636
  H   -2.26175722603978      1.40703673812145     -0.04731228658472
  H   -0.87144878169574      0.87802496830138     -0.99500814064304
  H   -0.83796547482103      3.15236841025035     -1.47560831436861
  H   2.98590150680165      0.89534212477439      1.08470509595045
  H   1.37923803394394     -2.62719224225706      0.95422110020011
