26
Coordinates from ORCA-job 6246optt
  Br  1.61500580798533      0.81976399986407     -1.68232087958013
  C   3.25277612161534      0.30165012914544     -0.94417953675716
  C   3.60565901241053     -0.97049859931664     -0.75175966788623
  C   2.86461958634972     -2.25249497369160     -1.02026843796331
  C   2.84418814781798     -2.58042632516744     -2.45030423931741
  N   2.85385339680706     -2.86254511515235     -3.56089887633608
  C   3.70334562040431     -3.29763125878612     -0.23370515096364
  N   3.31858811899613     -3.34792841661227      1.15984634912221
  C   4.38967562334190     -3.42177817872768      2.03747741421373
  N   4.39400520150045     -3.62567998352259      3.28456616157501
  C   5.64807231104692     -3.21839659855427      1.21952576528211
  C   5.13895751111998     -2.72495272471131     -0.13306409750958
  C   4.91641689071004     -1.23304471520542     -0.21615836656033
  C   5.73264023684137     -0.22648174262927      0.11994856382873
  C   5.30391714373915      1.15587365968070     -0.06276459057814
  N   5.90023414513577      2.22783513336131      0.21322878693086
  O   4.04011272803329      1.32900844122842     -0.63686052669897
  H   1.83361183919890     -2.22352336668077     -0.66268424416305
  H   3.66415235007080     -4.27473895670371     -0.72079404385092
  H   2.42701189629368     -3.73199061969628      1.43145400167567
  H   3.45748185471557     -3.76524772844097      3.66029897290854
  H   6.15130695052013     -4.18179155398546      1.12380879810365
  H   6.32867738999195     -2.53105629209516      1.71657197945723
  H   5.75974746962124     -3.04808180391677     -0.96967308241004
  H   6.71894508727626     -0.38361524713850      0.53561267955356
  H   6.80999755845616      2.03577283745466      0.62109626792370
