22
Coordinates from ORCA-job 6249optt
  Br  1.46836021419944      0.35913446476714     -0.72462712090984
  C   3.25209985818094     -0.01625790016373     -0.30243918505849
  C   3.69537503746131     -1.28999722591815     -0.12282593547114
  C   2.89539330400188     -2.47830589529806     -0.22277307760282
  C   3.42840915218005     -3.66924701501580      0.09218381097089
  N   4.70995724368777     -3.81059572727530      0.58318061357009
  C   5.45534725541016     -2.78182172089241      0.62338037055251
  N   6.76901573790286     -2.87723019406393      1.11210279770026
  C   7.71331043463114     -2.79241404108303      0.02515667517331
  N   8.06123381618266     -3.76145983309022     -0.68752042851392
  N   8.21256442231745     -1.49861595672105     -0.20631451837069
  C   7.42236062858848     -0.51652571830070     -0.13462225351647
  C   5.92353853146617     -0.41890253981435      0.03891855880928
  N   5.50453190954101      0.78013520184260     -0.09012054419055
  C   4.13566522681799      1.12095625114345     -0.09397659613073
  O   3.78266203004539      2.26415795706702      0.02798412586030
  N   5.05448206286313     -1.50947256289182      0.17642456874240
  H   1.87071837914685     -2.37987789913615     -0.54470877831142
  H   2.85849026942269     -4.58523811665790      0.01831184348051
  H   6.95554960680096     -2.15531160954259      1.80180777492784
  H   7.60030917799147     -4.61370284480432     -0.36848932191372
  H   7.82162570116012      0.48359292584930     -0.27803337979764
