20
Coordinates from ORCA-job 6251optt
  Br  1.11772545525608      0.11851656437502     -0.74967844708400
  C   2.95893597638527     -0.01626487178886     -0.31647980042266
  C   3.60323319185525     -1.16934512101611     -0.05898374686205
  C   5.05877875970930     -1.23043258542775      0.06924548835716
  C   5.68704839333956     -2.42868051118768     -0.10242167113480
  N   5.09053096309942     -3.63081728166012     -0.35536562844027
  C   3.80172770681201     -3.65990946378259     -0.25597077944555
  N   3.16201484132821     -4.88290133132919     -0.40276342126966
  C   1.96081218827924     -4.97994914294158     -0.02099413144686
  O   1.22205616869389     -3.99539771177036      0.52653121088714
  C   1.74176577286009     -2.75085192890380      0.51384724567813
  C   2.97924565587473     -2.49671227991205      0.04677538475271
  C   5.93297013150889     -0.07041511653422      0.30603430717597
  O   7.10479570832563     -0.15417337574298      0.56091995585243
  C   5.35318325703891      1.35506134844294      0.18206895797743
  O   6.01156356450424      2.32516788288888      0.38539365228626
  S   3.67011669819170      1.57658656679406     -0.36354861929194
  H   6.76918918405836     -2.44419102154432     -0.05473962998433
  H   1.39752606425683     -5.90198810986244     -0.09113992100003
  H   1.05778031862236     -2.02630250909682      0.92426959341491
