22
Coordinates from ORCA-job 6253optt
  Br  1.12036741709116      0.14665474234953     -0.33290123160230
  C   2.99228076937224     -0.00376925892017     -0.15037111876628
  C   3.61765638796021     -1.21223131091212      0.03221962460311
  C   2.87617691286241     -2.44263160788796      0.00527514378242
  C   3.49606100252837     -3.61137469737212      0.23983980942525
  N   4.82304661549644     -3.69695901762908      0.58197487023845
  C   5.54114571074666     -2.63796867885303      0.61820378269613
  N   6.89964012165607     -2.81102347295339      1.02593146009904
  N   7.77607135710338     -2.65608705799342     -0.11123468701751
  C   8.04306052881324     -1.44643841335206     -0.36296780512883
  C   7.39895622307373     -0.32591116010366      0.39602801119665
  N   8.02552205748655      0.49283810570879      1.12613516635595
  C   5.91602685423992     -0.20536810481408      0.21961750958695
  C   5.51852083556783      1.14566612706591     -0.15535617465430
  O   6.23253778337947      2.07643544809185     -0.41126589866429
  S   3.75676308381262      1.50238548653731     -0.24603320806203
  C   5.04967485386035     -1.28308422576792      0.27468932496836
  H   1.82024964877833     -2.42024836350644     -0.21526569552757
  H   2.96441230312666     -4.55242804926791      0.20066972461530
  H   7.13234271567925     -2.10196708452825      1.72015525061303
  H   8.74645545838202     -1.22330330262059     -1.16207457704232
  H   9.03103135898305      0.31281389672881      1.10773071828478
