25
Coordinates from ORCA-job 6254optt
  Br  1.27255679028076      0.32190992978730      0.10119840714680
  C   3.12237183522246      0.06638836637989      0.03139561321427
  C   3.69162042283885     -1.13014207293148     -0.07517351976063
  C   3.11379879599231     -2.50691425047068     -0.20673279878865
  C   4.08925281791348     -3.54507510908875      0.36496421727782
  N   5.40543785736259     -3.41228222598838     -0.26696089920929
  C   5.93460438540580     -2.14736982056853     -0.19371567239267
  N   7.17071925713899     -1.71769626622813     -0.21390701244576
  N   7.13031212575602     -0.34624982464448     -0.14907141381091
  C   5.88190336621669      0.00911004459376     -0.08516828451176
  N   5.08248014889609     -1.10088469767619     -0.11024309319889
  C   5.21927844491340      1.30659044939827      0.02055947818688
  O   3.81840267033181      1.23426175088928      0.08577004091046
  N   5.79853579159711      2.40998470239412      0.05920625451100
  C   4.99133193000602      3.61458278188949      0.16528884429688
  C   5.82419261225018      4.81628294174618      0.19200217109552
  C   6.48369197799861      5.81399621899005      0.21513415224875
  H   2.94045874573251     -2.72439464863016     -1.26385045040958
  H   2.15779709336854     -2.56559072543869      0.31092243464765
  H   3.71414497353931     -4.54499496863464      0.15958641066678
  H   4.15558231354133     -3.41802502318429      1.45172259537531
  H   6.07509882901772     -4.13825978824793     -0.05860574071419
  H   4.37607223213000      3.58229337246442      1.07016005974266
  H   4.29440323809802      3.67820008224014     -0.67655388743290
  H   7.08195134445137      6.69327878095944      0.23407209335443
