23
Coordinates from ORCA-job 6256optt
  Br  1.04969720901963     -0.35919449937811     -0.25821386066792
  C   2.92147709152199     -0.23206179723340     -0.06573196773212
  C   3.65813294504275     -1.33823106208907      0.08485441498251
  C   3.18247913060174     -2.76356659530020      0.15709421362775
  C   4.47270025103138     -3.59051109443546      0.13256295568999
  N   5.53450529476393     -2.59660981832869      0.37921062153259
  C   6.81439642596744     -2.99051870427100      0.57575244250471
  N   7.86046036578706     -2.27494173637304      0.76564849244657
  O   8.88932623364488     -3.23108539695306      0.92953126369098
  C   8.37050435114870     -4.47351465864050      0.81985324434825
  N   8.91548607665430     -5.58832042884851      0.89733469946717
  O   7.02456648048943     -4.32333793542170      0.58780758034919
  C   5.09255556227775     -1.28319142947589      0.25425495756304
  C   5.86381927541727     -0.17079954360918      0.28629136632531
  C   5.33094721760643      1.16522040436739      0.14008988966802
  O   5.97191205333040      2.18195507540392      0.15133247545838
  S   3.53931503975439      1.37547459328624     -0.09137116224966
  H   2.52403001364491     -3.01535900021457     -0.67265807170044
  H   2.62315278386264     -2.92683757644521      1.08008295695212
  H   4.63721825526969     -4.06450921946036     -0.83567115682459
  H   4.50254671509333     -4.35872195864064      0.90087174346840
  H   9.91166961044299     -5.50424781566288      1.07201764623261
  H   6.93410161762687     -0.22508980227602      0.41905525486713
