24
Coordinates from ORCA-job 6257optt
  Br  1.09851125538666     -0.05257716832704     -0.02573369588831
  C   2.96662851185237      0.07988027318354     -0.02298042736641
  C   3.57560507594605      1.27584069213224     -0.06311522024498
  C   2.99438118668948      2.65990280989968     -0.13759888268078
  C   4.19419464503997      3.58635163020481      0.12439687099437
  N   5.36472292764461      2.72490771088597     -0.12081849001911
  C   6.62360144986746      3.17070259750561     -0.08220922654627
  N   7.70691801074749      2.47102880217235     -0.08473848881073
  O   8.72742833602692      3.45384630882720     -0.07469374643716
  C   8.18531975603120      4.67594996597109     -0.05033529645495
  O   8.73468579808084      5.71883048064236     -0.03065508806931
  O   6.81457974065485      4.50560729030175     -0.05319524818711
  C   5.00471439584366      1.36689559216825     -0.07333794868029
  C   5.76203651569693      0.25635921161877     -0.04103426207137
  N   5.11654406431724     -0.95635653824705     -0.00392073317296
  C   3.73765541359599     -1.16942685953033      0.01437758470813
  N   3.16986655515727     -2.30964031713531      0.05695306562221
  H   2.19477791891584      2.80692924119394      0.58629039898020
  H   2.57172327169447      2.82304852562668     -1.13115496336059
  H   4.20706191823471      3.93518039684985      1.15893571349424
  H   4.22079765460744      4.45110567730838     -0.53376069527403
  H   6.84029611334598      0.24982594701864     -0.04437485949173
  H   5.68719617253148     -1.78611559328265      0.02201066783812
  H   3.83675331209098     -3.07707667698877      0.07869297111881
