24
Coordinates from ORCA-job 6263optt
  Br  1.37752424532986     -0.18339471157308      0.19870367442714
  C   3.25307374095066      0.06392824376974      0.04349414795907
  C   3.78819222743718      1.35143377880369      0.07830720864538
  C   3.01663844903746      2.62812990958280      0.20717427456000
  C   3.76604530199141      3.76693322860671     -0.47822902755948
  N   5.17885617804592      3.84930402138308     -0.13414559618686
  C   5.78368113465495      2.77441985366481      0.08354182391860
  O   7.11234882852543      2.85688977333440      0.40451933580459
  C   7.95943848365540      1.78524919509193      0.41860721100992
  O   9.07098203874194      1.94908635226334      0.80404938092711
  C   7.45956306365753      0.45608009958538     -0.10064854611461
  C   5.97153605716068      0.29764172730095     -0.07902347716582
  C   5.30109780860049     -0.92381643390104     -0.15878081794026
  C   5.99131786669611     -2.23153820483684     -0.35132379228399
  O   7.16939105699008     -2.34716697857778     -0.55255645146199
  N   3.97376366813439     -1.02286936506467     -0.08298634304866
  C   5.17710314220678      1.42967378768711      0.02916204548810
  H   2.88828575965986      2.85014508996858      1.27221783550956
  H   2.01958132707964      2.52131916785340     -0.21716644728122
  H   3.30451040943477      4.72024475554908     -0.22819679786464
  H   3.69833008701444      3.65904749492940     -1.56611367255593
  H   7.96155909380321     -0.32156332465250      0.46975259824726
  H   7.84088427998065      0.34816259015678     -1.12139576985438
  H   5.30929575121109     -3.09734005092529     -0.30996279717891
