28
Coordinates from ORCA-job 6269optt
  Br  1.18450523594907      0.33832167147971      0.18725089364657
  C   3.03377343152355      0.04986915508901     -0.01053896858708
  C   3.62307401780721     -1.18043155713972     -0.09494450196401
  C   5.06200049839656     -1.25696027482168     -0.15550295172704
  C   5.79224049390965     -2.58246906815719     -0.23810019263058
  N   5.01167236148138     -3.71070995583328      0.22618138147568
  C   3.71860543683836     -3.70013938139039     -0.42023681123197
  C   2.82827910625709     -2.49023349948460     -0.07513956309886
  C   2.13485192309161     -2.70845394832087      1.29658081457212
  O   0.81429099271661     -3.13040305561551      0.98795043310268
  C   0.51161989395817     -2.81635221835579     -0.30544116391502
  N   -0.63352938521800     -2.82392450024520     -0.82256621035217
  N   1.68267290225098     -2.52142488277536     -0.95967858114573
  C   5.77165000778431     -0.10680775524280     -0.13980400519290
  N   5.16326533095625      1.10324817863006     -0.09156936881013
  C   3.79390220039178      1.30289759751903     -0.02496995435771
  O   3.33507393070685      2.42340608042014      0.02488570898417
  H   6.72319991532189     -2.52648844529216      0.32698777943906
  H   6.06260587028619     -2.78740472439540     -1.27891009040443
  H   4.92291586865924     -3.70369452856184      1.23670207936674
  H   3.15643631241047     -4.60297532380856     -0.17526230699237
  H   3.88281404295058     -3.70834257776528     -1.50127617836172
  H   2.09234722438361     -1.79526548580461      1.89017972866501
  H   2.62362024880811     -3.49527583913435      1.87211951627228
  H   -1.33885383317094     -3.06150519381356     -0.13289200765872
  H   1.62758561089046     -1.97137223718361     -1.80050817664625
  H   6.85353123010440     -0.09448873934332     -0.16836424526721
  H   5.70784913055448      1.95438050934717     -0.07813305718043
