21
Coordinates from ORCA-job 6277optt
  Br  1.17038706239734     -0.27264758818455     -0.35970146982583
  C   3.01591515750580      0.00020842508641     -0.22702985241388
  C   3.59091065847402      1.23101535088484     -0.07364901508625
  C   2.89270009350827      2.47257426885926      0.02743560842406
  C   3.59391598404393      3.61977387773317      0.18834852359310
  N   4.98489285688483      3.64530843846476      0.24785195994061
  C   5.64014826341644      2.54996672142015      0.15783559038780
  C   5.02643668666678      1.24226715728626     -0.00440852677182
  C   5.76314544613540      0.10142410963228     -0.08175067354044
  C   5.13650603822529     -1.17928285802980     -0.23248982815803
  O   5.61442117258739     -2.26456070733608     -0.30960617218053
  O   3.70558278060828     -1.10903511963454     -0.29624102162581
  C   2.96167351682505      4.92942509827130      0.32121790601060
  C   3.59041626539510      6.13161193794695      0.51264569210920
  N   2.74591109665788      7.19265742790922      0.61482901896978
  N   1.51461133590866      6.89175606393816      0.51486311015956
  S   1.29644481790473      5.24768962987952      0.28242695728653
  H   1.81165041359260      2.48105699411131     -0.01687152927783
  H   6.72495016563844      2.60131369363568      0.20733902587145
  H   6.84257017119232      0.10949709503251     -0.03114269293143
  H   4.65581001643139      6.27597998309315      0.58509738905914
