26
Coordinates from ORCA-job 6278optt
  Br  1.00532103548964      0.13512117695228      0.11496181839022
  C   2.89676678590799      0.06438361685469      0.05737068622795
  C   3.56440853961766     -1.11238809877648      0.04673867936220
  C   2.80752847559889     -2.43241445587235      0.10466123306554
  C   3.69859536660011     -3.60460952591326     -0.30968815755864
  N   4.94101820016472     -3.52055299041523      0.43258539774516
  C   5.74566798098815     -2.42983286677150     -0.07261641184939
  C   5.01443920196721     -1.10576227638863      0.01522632272347
  C   5.78659832349855      0.00564350076897      0.00928030973376
  C   5.34052870097867      1.37722237983555      0.00754506519674
  O   6.04792346680365      2.35266606413302     -0.01111864248126
  S   3.56788114403674      1.64728555338817      0.03333879430693
  C   2.23646645944821     -2.66888271893536      1.47301962869457
  N   1.17097135219806     -3.44063361076774      1.64555341004830
  N   0.99227354946060     -3.43689155748245      2.94795272079508
  N   1.84017259378370     -2.72569846479246      3.65239864257042
  C   2.65462188626061     -2.22165316705054      2.73549281411549
  H   1.96805184346510     -2.38498542217277     -0.59141534979923
  H   3.86360991789590     -3.56708782931873     -1.39776225609730
  H   3.18451061165654     -4.53496953623700     -0.07367299088764
  H   5.45636596767408     -4.38934291204487      0.39575689697414
  H   6.01856788683407     -2.57295461021210     -1.13194543586711
  H   6.67064141041722     -2.36052501618354      0.49870969408388
  H   6.86644188380482     -0.09488976076331     -0.01044744628518
  H   0.23398264652759     -3.93842257328178      3.37997981914399
  H   3.47864476892142     -1.58282489855254      3.00409475764791
