25
Coordinates from ORCA-job 6281optt
  Br  1.21418799789672      0.32554364740032      0.03391850162636
  C   3.10044669126776      0.14363055723373     -0.02858177835241
  C   3.67227605882458     -1.12377870927617     -0.07852239152193
  C   2.88949258171223     -2.40345509982148     -0.14685170171557
  C   3.79407408089495     -3.56937984062038     -0.52139779377144
  N   4.98495527519328     -3.51973359290206      0.31269431390841
  C   5.84316514288237     -2.41134812596109     -0.05808394094403
  C   5.07011977530639     -1.12190703410941     -0.06036703934380
  N   5.78863103658819     -0.00335551241622     -0.05330016386994
  C   5.11492809770183      1.13095594956732     -0.04159586005803
  N   3.79053199676734      1.26110899749231     -0.01361580819278
  C   5.86438158180074      2.40473994906958     -0.05364665402062
  N   7.13571633856818      2.44775066917294     -0.10102656558380
  O   7.59006669964132      3.74416319166130     -0.11130435618954
  C   6.60658190626144      4.70525020232389     -0.06385517254932
  N   6.80406223201414      5.93957219451008     -0.05709061989794
  S   5.02592952803597      3.93028831418384     -0.01589365213391
  H   2.07974307314827     -2.29479784151555     -0.87060648312259
  H   2.42682969324294     -2.58943965499761      0.82588488804030
  H   4.03893453149195     -3.51166534417297     -1.59358020075125
  H   3.27518149764118     -4.51118802919278     -0.35022832841034
  H   5.49753490788382     -4.39003248709791      0.27400699217577
  H   6.29264675968625     -2.52049244343658     -1.05833734295931
  H   6.66078753850726     -2.30694285175966      0.65496154206641
  H   7.79679497704084      6.16251289466457     -0.09058038442869
