18
Coordinates from ORCA-job 6286optt
  Br  1.00518496751297      0.68948486014204     -0.48472528018026
  C   2.82246171716897      0.34811520090470     -0.17597862440528
  C   3.33653699230925     -0.89186691124739     -0.18875858769857
  C   2.74387480694392     -2.20235323475534     -0.52557461847014
  C   2.97538519470609     -3.10736954880699      0.42852767073415
  N   3.80041751911270     -4.22009608442461      0.17269868038168
  C   4.97931793726207     -3.74473407766979     -0.00575887880265
  C   5.42286650985071     -2.32135052048609      0.06981535479169
  C   4.76305289278892     -1.11561280987693      0.05096679291972
  C   5.63739033199978      0.03484672263650      0.21529175531907
  N   5.30451028186654      1.26804983993494      0.25109904007125
  S   3.76158672814059      1.78869510253548      0.09770541380892
  C   7.09132016294759     -0.35305178572454      0.35031769874700
  O   8.02382596691282      0.37365163836839      0.49132883075827
  S   7.17794603153166     -2.13282262959964      0.26926812362849
  H   2.90371614971388     -2.50958628770589     -1.55611989408455
  H   2.88905825275496     -2.84897191591634      1.48219935790622
  H   5.78254755647654     -4.46102755830847     -0.17130283542501
