28
Coordinates from ORCA-job 6290optt
  Br  1.11465852677146     -0.27340554318902     -0.42136197722917
  C   2.96087283756137     -0.20044094425043     -0.13839690783256
  C   3.77608039658293     -1.29254377867394     -0.16141388197885
  C   3.39352911431305     -2.64032037362503     -0.45182563172907
  C   4.33815238842006     -3.59628299413136     -0.38849061187928
  N   5.65247253615882     -3.35482785398659     -0.02609449967625
  C   6.05696807350502     -2.16345727662552      0.25475646734151
  C   7.49268429635119     -1.91789990773319      0.60291375651490
  C   8.21819111032616     -3.17386081688470      1.09967667043084
  C   8.88703735428763     -3.77720248395468     -0.16397594570755
  N   8.56990015414508     -2.89656610813016     -1.29607863528998
  C   8.26777425751850     -1.60200923616671     -0.70824669613546
  C   5.14957531615554     -1.00304384126318      0.17063386490460
  N   5.61178726462328      0.18947897698844      0.39877659386069
  C   4.77583373676274      1.27110303235879      0.31794602977063
  N   5.04120513495337      2.49144564258749      0.42072132117081
  O   3.39158012004426      1.00596928054215      0.10269425797344
  H   2.37189718653494     -2.87072688934580     -0.71903541729458
  H   4.10834221423901     -4.62919646393857     -0.61153074848574
  H   7.54966787597056     -1.08317147004652      1.29824337009770
  H   7.52961914302528     -3.87374779100253      1.56802832579643
  H   8.97061731888191     -2.89130881180700      1.83537789584496
  H   8.53764586226651     -4.78634109787461     -0.37391348265451
  H   9.97004686549580     -3.81755958342271     -0.03491611080967
  H   7.73817942002904     -3.24843625703463     -1.75613468995000
  H   7.71552421162421     -0.96557186050170     -1.39882219213503
  H   9.19916004968881     -1.09337382279838     -0.44699504481956
  H   6.03699723376328      2.60129827391013      0.58846391990075
