26
Coordinates from ORCA-job 6298optt
  Br  1.05004647458898      0.23015530905990      0.14746743696854
  C   2.90449729569600     -0.03333835218815      0.05061274143536
  C   3.47237907124001     -1.24743392742261     -0.00909355050579
  C   2.71310732991448     -2.54631415026736     -0.00364270462776
  C   3.60927555811858     -3.70069918338367     -0.42658788989793
  N   4.85857537562554     -3.61121160773312      0.32337312022107
  C   5.69619024059247     -2.49682323296267     -0.10761069162134
  C   6.27352847493174     -2.66822314185270     -1.48876451446386
  N   7.42147484301478     -3.28474008631030     -1.67560172742992
  N   7.54173111047841     -3.27894210001536     -3.01135482724660
  C   6.48779023069313     -2.66873138371294     -3.57126696402925
  N   5.65725805252181     -2.27137956479496     -2.63635841019634
  C   4.91884051076611     -1.19801889318170     -0.03756260947870
  N   5.60997327245638     -0.11496969888966     -0.01536305396644
  C   4.97093841176448      1.10960204069238      0.02347889815305
  N   5.50180270180205      2.24663785277169      0.03457366099978
  O   3.57114783170722      1.11085017559080      0.06059451443791
  H   1.84999541890227     -2.47273702849719     -0.66647600737762
  H   2.33705443524755     -2.73569712360600      1.00516196599837
  H   3.76548223649347     -3.67042205288335     -1.51208325000805
  H   3.12766257181883     -4.64639248278808     -0.18223755746325
  H   5.39026828079475     -4.46996075379487      0.25465716098485
  H   6.53574556864930     -2.40614044389883      0.58160186886657
  H   8.35614970091930     -3.67531487686538     -3.44991288316087
  H   6.37312698445291     -2.53937243329487     -4.63512607681530
  H   6.51095801680938      2.13261714022904      0.00652135022351
