25
Coordinates from ORCA-job 6299optt
  Br  1.18418071558506      0.18362245708800     -0.02366427584723
  C   3.03046575118854     -0.12831274671270      0.11845171881298
  C   3.56652328669340     -1.34215768349266      0.00120321520269
  C   2.99052691617479     -2.70266598951600     -0.25908447181539
  C   4.18054034935655     -3.62418758373684      0.06813204471132
  N   5.34850423334259     -2.74454088034060     -0.04467118797271
  C   6.67480685374584     -3.24553188780641      0.22232899066684
  C   6.97321349919492     -3.34501053118994      1.68939562069638
  N   6.61291578148937     -4.36642973676563      2.40470233405770
  O   7.02509993989048     -4.04029838152292      3.67726145195856
  C   7.59945781913444     -2.84762109257393      3.59311992861949
  N   7.60817209729909     -2.35485175202380      2.40400281196224
  C   4.99864867681054     -1.43909960133965      0.12333365250689
  C   5.77499750706315     -0.34943022401174      0.36462185550351
  C   5.15965218977951      0.94218625337197      0.48175028674517
  O   5.68247246714561      1.99403098814765      0.69261673731012
  O   3.74109649189379      0.97130951180137      0.34222181288456
  H   2.69747297775196     -2.80024507124672     -1.30630873910704
  H   2.11845100303442     -2.91818237849699      0.35529255616225
  H   4.27684198297222     -4.45909634609855     -0.62550424644784
  H   4.10760506684728     -4.02664578636454      1.08368075898230
  H   7.40732743644531     -2.58140737936107     -0.23694330056039
  H   6.76639050453553     -4.23202421410855     -0.23136386502639
  H   7.99310749141690     -2.42125125934652      4.50250773702300
  H   6.84152896120862     -0.39015868435319      0.52191657297099
