28
Coordinates from ORCA-job 6302optt
  Br  1.38168262268802      2.04832500680601     -0.44773172328222
  C   2.85486893412056      0.85619771287421     -0.28095563790223
  C   2.67434313703559     -0.54210095440644     -0.40106521728541
  C   1.32401420698950     -1.16208552048748     -0.66600054524708
  C   0.83672451829641     -2.06723207445202      0.48016769729202
  N   1.39554794271673     -3.40131381934554      0.44259550056705
  C   2.81352709729430     -3.51249051990359      0.72967626796061
  C   3.71056553892493     -2.86684398754189     -0.33724372503344
  C   3.78814196461568     -1.36397311862891     -0.24942522063300
  C   5.02995277264962     -0.76471224997398      0.00592770795584
  N   6.21778475786968     -1.45284515179935      0.17844098402105
  N   7.21110822454458     -0.71974498578603      0.39378784150209
  S   6.82655139565040      0.94011953098306      0.41636887936120
  C   5.17720213224520      0.62231860801570      0.10866077096140
  C   4.07188665126918      1.45528212762394     -0.03348873887808
  C   0.85062061392098     -4.33601234457613     -0.41004287753995
  N   -0.19432596377882     -4.28034106310476     -1.12898386249138
  H   1.36943038406601     -1.76207941216852     -1.58034836709031
  H   0.58598832080787     -0.38419027928989     -0.84006604518073
  H   -0.24929960089393     -2.15231843176845      0.44870384231240
  H   1.09165572659799     -1.61639985141963      1.44184036140868
  H   3.05656871139648     -4.57325056356537      0.79954779816756
  H   3.01247427309127     -3.06597563905598      1.70689674469925
  H   3.33419508887363     -3.16035697088771     -1.32278134974251
  H   4.71876284857636     -3.26596010007387     -0.24149748278155
  H   4.15047666640595      2.52919089253723      0.04769158263601
  H   1.42456223789870     -5.26407575847285     -0.41830298261772
  H   -0.65801120387289     -3.37513108213175     -1.08837220313954
