21
Coordinates from ORCA-job 6311optt
  Br  0.92132558912756     -0.37848370559349     -0.41258584335248
  C   2.78731517349622     -0.17702777179629     -0.31088865763521
  C   3.58860927733590     -1.25429708481424     -0.13297669631779
  C   3.26385778943269     -2.65491628218237      0.00135132310069
  C   4.43146930844435     -3.30357145027154      0.13045084438981
  N   5.50267399856303     -2.40966142618535      0.11325637382623
  C   6.88676234927245     -2.86587501523288      0.04190089542210
  C   7.38813952736304     -2.87608220126723     -1.33183849557804
  C   7.78295794897877     -2.86779891338388     -2.46025877186348
  C   5.03553509998503     -1.14171731259478     -0.06506936057460
  C   5.75850540347919      0.03486142868722     -0.16680402517651
  C   7.17961206763715      0.07765187819251     -0.05616178779966
  N   8.32211782908360      0.11277277221675      0.05735717823093
  C   5.14565662089810      1.33171996066607     -0.34981841525882
  O   5.71729249909363      2.38620160169943     -0.43109324873414
  S   3.33886355466518      1.42834136959502     -0.46896501331620
  H   2.27647779955716     -3.08117464755170      0.00199007925644
  H   4.63117454742035     -4.35658473127251      0.24586580007019
  H   6.90917868762435     -3.87324633403572      0.45712466006039
  H   7.52013940545752     -2.23867101701350      0.66593678927057
  H   8.14233552308466     -2.85044111786150     -3.46177362802041
