30
Coordinates from ORCA-job 6314optt
  Br  1.14380039797964      0.18641385886776     -0.16544603452362
  C   3.03122229912533      0.04460624047901     -0.02217733768507
  C   3.63189515750781     -1.21147737173878     -0.04460688309254
  C   2.85585455996375     -2.49161425091671     -0.17700491726971
  C   3.75955609473928     -3.67915031998385     -0.47053469476168
  N   4.90990421126182     -3.66476401512722      0.42072722865602
  C   5.67872394024480     -4.90024810662566      0.35589159133367
  C   4.91842264992013     -6.07038643801390      0.79308600805800
  C   4.31208684948897     -7.04230338894720      1.13980179586920
  C   5.77248505622083     -2.54420780760889      0.09583339226315
  C   5.01722211613254     -1.24253261355969      0.08812884279500
  C   5.69872088830670     -0.03997693522010      0.21230794653999
  N   5.11374517003305      1.14820624000406      0.21883680232871
  C   3.78634875753368      1.20856929193740      0.11321998793604
  C   3.16815738313951      2.57554799773562      0.12145328619794
  C   2.52468061688659      2.96075196326168     -1.19914957512993
  O   1.79162915894484      3.89849247451199     -1.31945923108023
  H   2.10491645063304     -2.38813431935556     -0.96182632153105
  H   2.31150969416755     -2.66356320059287      0.75568743132783
  H   4.08617571151253     -3.65676224611049     -1.52509804039604
  H   3.20973809619049     -4.60653337227498     -0.31591800602047
  H   6.55331895962678     -4.79075221872369      1.00132297909562
  H   6.05411512700582     -5.08454801215773     -0.66558233090672
  H   3.77607412517814     -7.90584570431875      1.45448549400834
  H   6.24905078747605     -2.68926191638897     -0.89205612217411
  H   6.57677099472020     -2.48786905123867      0.83275093579556
  H   6.77984872232875     -0.04133204628595      0.31764984515093
  H   3.96223104811855      3.29955701854893      0.31308692769692
  H   2.41387231546946      2.68676417597312      0.90235227932387
  H   2.79892266014316      2.33635407387016     -2.07276327980562
