24
Coordinates from ORCA-job 6316optt
  Br  1.02111154198132     -0.23424747446162      1.46654903854441
  C   0.79683943679510      1.21457143485665      0.29270058789559
  C   -0.00205692441188      2.25307072961977      0.54540545194787
  C   -0.84748525292383      2.51312897476279      1.73184130544401
  C   -1.52838420930443      1.58391460664689      2.70777104956521
  N   -2.73756400084480      1.96131701198503      2.54152291537958
  C   -2.33041401910255      2.79610704731498      1.38011506196062
  C   -2.65436086890823      4.22877465644488      1.23546807436710
  C   -1.90692157532112      4.92834439172886      0.36319453607795
  C   -0.82469941283132      4.42724951307152     -0.49545055885222
  C   -0.06132428211978      3.31149479672547     -0.45834237172083
  O   0.84232405555782      3.23694944352097     -1.49917188985683
  C   1.58789751716885      2.15169006211780     -1.80009981655249
  N   2.25103999454266      2.17243949733181     -2.86631292778203
  N   1.53875789542357      1.12778783828497     -0.86185180394567
  C   -2.21454599841819      6.32296552928776      0.17217174898456
  N   -2.44669969236988      7.43490380594619      0.01102960437772
  H   -0.44165237074458      3.36930985573162      2.27790720893786
  H   -1.16767068228618      0.86593484552910      3.43755962913565
  H   -2.60203528302116      2.27099701731099      0.45814219356492
  H   -3.44828337128869      4.69739122441376      1.80198470201044
  H   -0.58307943838111      5.07937222932037     -1.32630141301599
  H   2.80011672295958      1.33035223893056     -3.00097644866468
  H   2.11109021784883      0.31618072357885     -1.02185587780274
