28
Coordinates from ORCA-job 6319optt
  Br  0.86778372606351     -0.04033926050480      0.43190580965704
  C   2.75825695944314     -0.04778023284929      0.24609091924406
  C   3.43231753214590     -1.26454446132897      0.14815256020246
  C   2.74827528239594     -2.60149822379659      0.16998399664571
  C   3.70352780780061     -3.71732356645974     -0.22327168068252
  N   4.96612128921426     -3.51350453277169      0.47441109709290
  C   5.69969707764390     -2.36763719148310     -0.01702143698448
  C   6.26152451399359     -2.50482305035060     -1.48048069395266
  C   7.48927465362484     -1.60213792194128     -1.71233306773520
  C   7.93649028967703     -1.63413372876069     -3.09968811691069
  C   8.27463785771742     -1.67957720081329     -4.24694268325321
  C   6.60752956016598     -3.90489510462300     -1.73202875755521
  N   6.85826102311404     -5.01568587959467     -1.86357628042766
  C   4.81849745143003     -1.13973676139132      0.06407566926139
  N   5.43219624816802      0.04479239093530      0.05162967441360
  C   4.66608079560433      1.11922461709637      0.12932733834550
  N   3.34067933759142      1.12780456712164      0.23321140009258
  H   1.88133429156716     -2.58198480794443     -0.49217225704632
  H   2.36990057552324     -2.77623217142677      1.18096984762735
  H   3.82252297773172     -3.74250341156333     -1.31609728518901
  H   3.29458773623344     -4.68062701607582      0.07565218648951
  H   5.54152763527768     -4.34576878794340      0.43697708207795
  H   6.55634398403043     -2.19817787950558      0.63919313063074
  H   5.48724140362723     -2.23233117907831     -2.20183076362379
  H   8.29834197539518     -1.92871665149280     -1.05471207639366
  H   7.22583428874500     -0.58550264149937     -1.42155939368874
  H   8.58398739339833     -1.71937712632543     -5.26399847445906
  H   5.15922633267655      2.08401721437100      0.11513225612144
