29
Coordinates from ORCA-job 6323optt
  Br  1.65666705655528      1.27181890124473     -0.69911874516388
  C   3.40066884914060      0.50266597767520     -0.75865805420740
  C   3.56887194696724     -0.87888542681977     -0.64688110316359
  C   2.41949323210939     -1.84072674607558     -0.52754530502136
  C   2.06894828481011     -2.26453881923988      0.90476315136564
  N   3.03208230434276     -3.20015746764520      1.46653088722084
  C   2.45904907542689     -4.15608243723285      2.40886468682368
  C   1.44175074578551     -5.00687659433995      1.79050313854188
  C   0.60114741905335     -5.69779195383796      1.29196622189170
  C   4.26195260997404     -2.60211585929320      1.97455516072663
  C   5.44477312442904     -3.00272219397487      1.10244874969564
  O   6.40959489441553     -3.54896800089246      1.55992242452405
  C   5.32312571665030     -2.71041147874760     -0.39338371788131
  C   4.91090973136153     -1.28461130431270     -0.63572375255181
  N   5.91913988829183     -0.42041176655401     -0.76903703918959
  C   5.60720938163082      0.85602856883470     -0.90613878205315
  N   4.38008643237489      1.36539856646981     -0.89316942163176
  H   2.62990089594858     -2.74461262365048     -1.09985475542642
  H   1.53741770947851     -1.38065927344272     -0.96871455640928
  H   1.10423156646516     -2.76961726406054      0.86461122050915
  H   1.95150827776950     -1.37325695122704      1.53971774524794
  H   2.01887771302445     -3.66031343513428      3.28824921589678
  H   3.26581064517379     -4.79569218464141      2.77094990388999
  H   -0.13823684241949     -6.32328353701782      0.85145428633641
  H   4.48184880189178     -2.93424110818516      2.99002651397430
  H   4.18635316678218     -1.50883856693328      1.99645606483065
  H   4.59131032773816     -3.41292797949503     -0.79320963133686
  H   6.29631100276492     -2.88844101494531     -0.84255361191550
  H   6.42219604206327      1.55927197347472     -1.03203089552336
