26
Coordinates from ORCA-job 6329optt
  Br  1.15990972718810      0.00413970226936      0.54818270624538
  C   3.02314379594268     -0.09116654941995      0.35809691541892
  C   3.67802578317564     -1.22936674928684      0.07573851281035
  C   3.06679469884351     -2.50732501187194     -0.18089906506108
  C   3.84183380983980     -3.58097614899092     -0.35221122485450
  N   5.22125742219179     -3.53688946636289     -0.18480421283186
  C   5.81563501013534     -2.41984042960717     -0.05378869170751
  C   7.29641006249798     -2.40239531375851      0.21656841791965
  C   7.80735884598169     -3.77488593699841      0.61461940857968
  C   9.27726053068778     -3.77622329077135      0.92263158545650
  O   9.99017801929065     -2.81337274066861      0.85879795219427
  N   5.10233764259783     -1.18135000438784     -0.06940486361652
  C   5.76076912337420      0.03069504809746     -0.25012754484157
  O   6.90358082436138      0.12966629452513     -0.61257106255530
  C   4.98382064873698      1.29117859265050      0.08115942111516
  N   5.50755561527755      2.43879346155685      0.04738646514317
  N   3.67920616438381      1.11046782111077      0.47390031581233
  H   1.99070179940326     -2.56673262172233     -0.23895949316472
  H   3.43242510327269     -4.55521967789380     -0.57890749970097
  H   7.52067080307610     -1.67059234433570      0.99428071688698
  H   7.83134577231414     -2.04077107028611     -0.66078042399212
  H   7.62622816081915     -4.51382607116308     -0.17075116407366
  H   7.28032025274766     -4.16805346421715      1.48960062015295
  H   9.68971160851983     -4.75754050710235      1.22845503767746
  H   6.48053164335312      2.35549349662313     -0.24270626925579
  H   3.16698713198726      1.94309298201179      0.72649344024281
