24
Coordinates from ORCA-job 6335optt
  Br  2.64222408559083      0.11071362610283      0.67960529379805
  C   4.19298112539058     -0.98769406265433      0.93346416777675
  C   5.36201538135843     -0.38165776948179      1.29983398669204
  C   5.76871159172226      0.72375467981330      0.44026363067429
  C   5.90272268759424      0.10652448946756     -0.77381261611570
  N   7.01028367991897      0.33311248976961     -1.63837527569213
  C   7.89861870904045     -0.75075276270445     -1.23373172222394
  C   8.64437738061516     -0.68124829913675     -0.14165158119551
  C   9.07252024482421     -1.89277189247270      0.62967521998285
  N   8.24431457453637     -2.58960690427387      1.31283735347829
  C   6.90051561630231     -2.18674387231970      1.29569566657515
  N   6.55129363135413     -1.02995343333570      1.67959160312033
  C   10.46473805689173     -2.24234019633306      0.62430956660929
  C   11.63731744024028     -2.48116970598240      0.57217236683355
  O   5.29948966167895     -1.04777378317565     -1.14929385663817
  C   4.42363433032490     -1.79555067713375     -0.27243496496200
  N   3.95307388305645     -2.87572125538890     -0.67027764183223
  H   6.45514078722081      1.51349983532306      0.71142906539351
  H   7.42360743919512      1.23166319830526     -1.41082896565887
  H   7.71130314512127     -1.68505956697977     -1.74656778178628
  H   8.76484774491223      0.26487137432828      0.37769423127229
  H   6.22814170380863     -2.94555089089131      0.88955792147832
  H   12.67668922300160     -2.70884085882790      0.53857967090691
  H   4.24243787629995     -3.08670376201787     -1.62573533848680
