24
Coordinates from ORCA-job 6341optt
  Br  1.33247602021421     -0.53179050865758     -0.96513969446191
  C   2.06763869053304      0.95957810656779     -0.08298953150460
  C   2.79626496607601      1.93112342203289     -0.64701759920145
  C   2.31836905673224      2.60989679008494     -1.87182863768993
  C   1.02288148431937      2.91332512270793     -1.68846637931434
  N   0.26651334512210      3.97045491217106     -2.14636382214620
  C   -0.66068380735436      4.56276520308111     -1.35255410833051
  C   -1.14849629407903      4.34123615807808     -0.08185901547383
  C   -0.96861801665649      3.45376551861717      1.11023514389145
  N   -0.06913596176073      2.74216034780005      1.67293677084087
  C   1.21428444459554      2.55825562663163      1.28150675378408
  O   1.50481749511812      1.18562033876160      1.13354801977953
  N   2.09325431869539      3.43846210525669      1.06685424275734
  C   3.22609017758620      2.96541312970470      0.36707552885897
  N   4.39538820157852      3.42437725101838      0.43091214294107
  C   -2.24515356576703      5.23430872097487      0.20622695777024
  C   -3.15367944603601      5.97084083836949      0.47451720134558
  H   2.97792250902911      3.15213581153214     -2.53607383036482
  H   0.44820025597458      2.35794325506692     -0.96045419313255
  H   0.55252777523214      4.48073848884007     -2.96782179035728
  H   -1.14096708025738      5.38970301590190     -1.86035351305036
  H   -1.89062665446551      3.48096200312093      1.68834698570824
  H   4.44333191155912      4.15433660319047      1.14287553452264
  H   -3.95559982598918      6.62838773914674      0.71088683282779
