22
Coordinates from ORCA-job 6344optt
  Br  1.34319523087591     -1.38560588920911     -0.63720069532197
  C   3.02158125168816     -0.65918455830002     -0.21344460693327
  C   3.27698695443567      0.67320094367019     -0.28179130285285
  C   2.34007153922028      1.58365918125425     -0.91183133914912
  C   2.18062959653123      2.90754894097690     -0.73121435402010
  N   2.72742077056861      3.72374184311706      0.22420073528007
  C   3.82423177395352      3.49208055598929      0.83590031213452
  C   4.80228417587582      2.41791022345831      0.67495472686170
  C   6.09821104422013      2.77586583738077      1.36338199066920
  O   6.43201826957032      3.91683199538639      1.51144663969554
  C   4.59898902021073      1.17814669498419      0.14539113811851
  C   5.69306338391545      0.18858627514996      0.07474294116190
  C   5.43124594769514     -1.12614611773170      0.10878483894089
  C   4.04783230278001     -1.64676776802794      0.14979778792932
  O   3.83020105617263     -2.81353532940357      0.37440092077700
  C   7.05491134188648      0.60516537594534     -0.10974600355884
  N   8.14123429910633      0.91994210845727     -0.30198066024949
  H   1.68015699478437      1.11711225089171     -1.63327020077464
  H   1.44004983898894      3.40786098190161     -1.34450840845627
  H   4.12054283367656      4.23678423564989      1.56869478808432
  H   6.68361311136222      1.95493998973143      1.79969175720778
  H   6.22152926248143     -1.86513777127221      0.07959899445579
