27
Coordinates from ORCA-job 6346optt
  Br  1.27232233807283      0.96707294895142     -1.27600646512182
  C   2.97884095853037      0.39267727425665     -0.75812196071347
  C   3.42526660288452     -0.88147095683132     -0.82426044497786
  C   2.60146870842901     -2.04574310113615     -1.30677207259096
  C   2.18393773420814     -3.10946340384088     -0.26560674358161
  N   3.17800867161995     -3.96916957695729      0.34517886284239
  C   4.14096575838373     -3.39512058994666      1.27320767246450
  C   5.54082147063342     -3.21070765414983      0.66979524969830
  C   5.42637033312186     -2.41726028228780     -0.60169734402624
  O   5.72589749841215     -2.84289446481529     -1.68506810793935
  C   4.81281469992419     -1.04454224508113     -0.46400640473632
  C   5.58190425728533     -0.02484818103009     -0.03474293836866
  C   5.05091775759005      1.31786340845794      0.04545959652609
  O   5.60824326898722      2.31186123897444      0.39459547963099
  O   3.71684503526700      1.42577372873155     -0.35511566802301
  C   1.32349147253069     -2.54592704815001      0.85173481258500
  O   0.86964353645140     -1.43885802947222      0.86921599352595
  H   3.15061200694178     -2.56019960909979     -2.09876882963389
  H   1.68477849355538     -1.66019249028074     -1.75029714396050
  H   1.50205058649569     -3.78378410879558     -0.80066396369634
  H   3.59851795719484     -4.61132191645798     -0.31198672114557
  H   4.23183205983499     -4.03219693087316      2.15533984203133
  H   3.75936802578630     -2.43110319458701      1.62211742519360
  H   5.99213792759977     -4.17529008404606      0.43476071043501
  H   6.17811822428650     -2.68116516381224      1.38305101159345
  H   6.62202583759192     -0.14784077742825      0.23356324373296
  H   1.13579877838092     -3.26614879029248      1.67109490825602
