30
Coordinates from ORCA-job 6348optt
  Br  1.64837096348938      1.43408131429707     -2.47537665989642
  C   3.22145290201263      1.85802832316543     -1.51745870240321
  C   3.27391274165211      1.76765196026824     -0.16717231047895
  C   2.08924172071650      1.82927679748957      0.73856554246340
  C   1.94992115647593      3.34577825004224      1.12597780996605
  N   2.26802991498256      4.25122721723608      0.02854418263903
  C   3.33057280634776      5.23931126556512      0.21743045325752
  C   3.92909109609800      5.74945453902250     -1.12192781468385
  C   5.45153850772153      5.55498524421341     -1.34194099136539
  O   5.81014102532343      4.35169464843505     -2.02016448679112
  C   5.16857860441250      3.27363015442645     -1.50378048047326
  C   4.19452701411652      2.64531338060468     -2.19701453453808
  C   5.44548608070846      2.92469004560528     -0.11703099158232
  O   6.37276579203202      3.33909192674753      0.55593334422136
  N   4.45138723314129      2.13878475766943      0.43462908367930
  C   5.97611102429226      6.70719399764608     -2.17168734436441
  O   6.44719403980345      6.61481238233733     -3.26372516664097
  H   2.21721572610242      1.23583776508451      1.64671759603915
  H   1.19973384820853      1.47510244967827      0.22546793670882
  H   2.62952847917907      3.54700099807359      1.95713905661850
  H   0.93869072958845      3.50719944537551      1.50569106607433
  H   1.44106360480529      4.66520681069020     -0.37491837506921
  H   4.11524799411441      4.77838935970272      0.81775554831235
  H   2.98329614232178      6.10488700817866      0.79585380688958
  H   3.72466274752082      6.81927980426495     -1.20581948604575
  H   3.41206603890927      5.27020154136313     -1.95650557534023
  H   5.97033947226154      5.58874538551187     -0.37410941791591
  H   4.03645531363850      2.91141021174521     -3.23436190996777
  H   4.53739748699405      2.02384352628365      1.43653962518653
  H   5.86797979302938      7.69088948927612     -1.67025080449903
