25
Coordinates from ORCA-job 6350optt
  Br  1.43310064536333     -0.43619376202901     -0.54972052186579
  C   3.28731951119443     -0.13927031985502     -0.34407273218961
  C   3.74255881810684      1.08986253119311      0.08599618535542
  C   3.03226521165604      2.36479719810320      0.45807591511556
  C   2.43369724104557      2.25602095800249      1.79354579273858
  N   2.01004781008110      2.20561860096625      2.85741563210605
  C   4.20018337918272      3.40461069565331      0.42903328436291
  C   4.00676069190295      4.61643356788299      1.31968651230510
  C   2.81528493350095      5.45168891941635      0.91262441607898
  O   2.13324439864361      5.19357746923125     -0.04632109796641
  C   2.54486407723649      6.60947158652166      1.75702463429389
  C   2.35667996596173      7.54946225177277      2.47466934911374
  C   5.46567991198987      2.58711207115820      0.74383933571228
  C   5.11660474621965      1.21665053405481      0.23640571409171
  N   5.97079333281290      0.23825613257671     -0.02338193546976
  C   5.41176023558675     -0.89147906303723     -0.44855509728821
  N   4.11271652810442     -1.12760455608707     -0.62080096874898
  H   2.24216152579025      2.63676750617469     -0.24114723389130
  H   4.25235727740335      3.73700344729114     -0.60961612188776
  H   4.88937246580756      5.26321903253978      1.29091863783482
  H   3.87770233298805      4.32926649729485      2.36838142375989
  H   2.17166378584862      8.38694795874395      3.10604926240562
  H   5.64231361012490      2.53022466766857      1.82324872898029
  H   6.36561800704887      2.98735697409252      0.27962533371828
  H   6.08024955639898     -1.71180089933031     -0.68192444866531
