25
Coordinates from ORCA-job 6351optt
  Br  2.06815163434856      0.97750383322662      3.43469667775063
  C   3.26256466610379      0.60606869487290      2.01893370696049
  C   3.68973958800090      1.59778107881571      1.20124778147152
  C   2.86165164148870      2.79733044591874      0.94696804142173
  C   1.65914390908056      2.60639702566925      0.36572271611545
  N   1.12056605204280      1.31948168458807      0.08348799907799
  C   1.77568366358214      0.56284619347489     -0.69206981588107
  C   1.41927383424472     -0.85438441080971     -0.95506664059928
  C   2.18283226557184     -1.94295365883721     -0.83994623493943
  O   3.47046548700898     -2.06495405137374     -0.33930854977520
  C   3.86297947444710     -1.00621351557149      0.42811263697897
  N   4.64330081748639     -0.09219749928181     -0.20571651401081
  C   4.68862877006531      1.26696191157617      0.17552021679258
  N   5.41213618428981      2.14703887285716     -0.38594708459179
  C   3.37332472969556     -0.77756986659846      1.66243480548594
  C   0.78691161666301      3.70507155615185      0.08009520174601
  C   0.06151554331851      4.62289064078198     -0.18008233700345
  H   3.19663531440948      3.80275723643634      1.16103153418466
  H   2.64998087568707      0.94827940619550     -1.22130804132794
  H   0.40915832944959     -1.04185741924100     -1.29922269166296
  H   1.81896195407883     -2.91774174881897     -1.13135668370772
  H   4.97374653829486     -0.33192772150189     -1.13007992929673
  H   6.00130644047524      1.76037118401501     -1.12058871044406
  H   2.77012990569265     -1.52182534469203      2.15687572291539
  H   -0.58078923552645      5.44084547214614     -0.40343380766092
