27
Coordinates from ORCA-job 6352optt
  Br  0.99182385966174      0.23358480503662      0.06000504679017
  C   2.85652211615619      0.07875436237064     -0.02671567178590
  C   3.47029007688790     -1.12363945853875     -0.06815665457120
  C   2.72613468319931     -2.43133912112032     -0.08789623293278
  C   3.63042411990095     -3.58196735636498     -0.50159497951777
  N   4.84317108220749     -3.52520509232975      0.29403061833115
  C   5.71693274901515     -2.41992021582455     -0.04734229255361
  C   6.49128717957948     -2.59408240657677     -1.36275313506856
  C   7.50836997632420     -3.69451361365649     -1.27218352810426
  O   7.71158064650852     -4.37822553133684     -0.30998523049299
  C   8.30933646007682     -3.90376320490823     -2.50667872390973
  N   8.90383858921015     -4.03803073544902     -3.47652162569236
  C   4.92105650191303     -1.12832947448040     -0.07640972867402
  N   5.61824725871016     -0.04728134435944     -0.09503787157600
  N   4.97391000704268      1.11807111065717     -0.09864646965445
  C   3.60376551064195      1.33722001101997     -0.03435301734884
  N   3.04374496512519      2.47950691630061      0.00449306220287
  H   1.86703358708694     -2.34822665480482     -0.75466358129444
  H   2.33597609487295     -2.62049278811697      0.91595025841229
  H   3.81716868662898     -3.52979049547434     -1.58516982483513
  H   3.13055568587130     -4.53030004682026     -0.31087896066161
  H   5.35474798208767     -4.39656285047889      0.31047572978324
  H   6.45637961765644     -2.32179906282383      0.74904049087241
  H   7.02380879019196     -1.67340983386746     -1.62242610665064
  H   5.83134247438997     -2.80725153877128     -2.21026073012514
  H   5.58163174555788      1.92262775953276     -0.10045820312173
  H   3.71691955349493      3.24236586118565     -0.01086263782096
