28
Coordinates from ORCA-job 6354optt
  Br  2.96627201819090      0.47490925604813     -3.54131373734569
  C   3.86203744796804      0.38901056566679     -1.88977700342225
  C   3.88022003299830      1.37390865227601     -0.98976919857892
  C   2.89381108732159      2.49332246911879     -0.89396113847279
  C   1.66971016891920      1.88180582263725     -0.15382790603196
  N   2.09024286013932      1.21410119957309      1.05990319336639
  C   1.29465058373302      0.10614558418870      1.56064877819804
  C   2.04863298294715     -0.64985983969036      2.65619242616012
  C   3.24004868665109     -1.49202786219407      2.21392359944034
  O   4.36951575264239     -0.68422735772954      1.82755856842822
  C   4.49233158062960     -0.38266316488774      0.52963962645293
  N   4.39559675860503     -1.29066349393000     -0.35881275968391
  O   4.41869500888038     -0.81982259353627     -1.68155039631116
  C   4.65358445352374      1.06079840822708      0.21744450033927
  N   5.24252560120316      1.92497928726432      0.92558211283792
  C   0.62370941158529      2.90238678250838      0.06799259389288
  N   -0.17318197008911      3.70241943150286      0.26644625236710
  H   2.58267636361372      2.86986295404754     -1.86669124633137
  H   3.31325800724059      3.31376142513794     -0.31217039397203
  H   1.24211974224093      1.12307250148669     -0.81552210336232
  H   2.33774889986401      1.87482387095730      1.78753858410131
  H   1.10260958885543     -0.56976978960167      0.72138044783897
  H   0.31840894899731      0.42614212853384      1.94792964489733
  H   1.34742749876528     -1.33523247466669      3.14002472576480
  H   2.37743038857368      0.05172048167649      3.42844105179060
  H   2.98109692852824     -2.15697746328668      1.38959879694512
  H   3.59352483694863     -2.09551422262349      3.04794336907060
  H   5.64629633052304      1.49658744129528      1.75920761162041
