27
Coordinates from ORCA-job 6356optt
  Br  2.09096145924028     -1.74305899355117     -1.13713687702490
  C   3.05463155769641     -0.29184651396122     -0.44472222166797
  C   2.65872864090422      0.98577510857813     -0.55960423424981
  C   1.42144303816466      1.46805452922125     -1.26030139508360
  C   0.12073241341024      1.44986294792715     -0.40754092961998
  N   -0.77907588224938      2.56419595510857     -0.63921748621365
  C   -0.58122954854325      3.76019543091197      0.15166613939491
  C   0.78976841930088      4.47241050951094      0.06516353824712
  C   1.85728850980842      3.66856496404966      0.75782039425712
  O   1.74561043192964      3.22395927894401      1.87000080245401
  C   3.17084602017822      3.37519278009457      0.01417354262845
  O   3.78745285588484      4.23586476106980     -0.54073231590781
  C   3.58525774516002      1.91590337451098      0.05583233737125
  N   4.68619330354684      1.61354968120213      0.63090787108245
  C   5.04540028662315      0.27307845497853      0.71521309805527
  N   6.07529785872705     -0.20042840269434      1.24481125535869
  O   4.16888209426658     -0.67131443845177      0.16256024614198
  H   1.26436481058256      0.86858706813907     -2.15811405217610
  H   1.59846968098475      2.48436301191483     -1.62143626727702
  H   0.36760208657226      1.43568280814597      0.65483696022884
  H   -0.40493002377940      0.51591790912661     -0.61400609712281
  H   -0.90204470069008      2.76354832771982     -1.62303991804092
  H   -0.74769241117314      3.50639067451097      1.20103318831604
  H   -1.35181507202060      4.47573180454360     -0.13394463952846
  H   1.07654362097840      4.69280801378485     -0.96374749793758
  H   0.71388795282638      5.42355371516918      0.59946249265143
  H   6.63442485167000      0.56145723949587      1.61906206566305
