26
Coordinates from ORCA-job 6358optt
  Br  1.33297391857900     -0.18878210877293     -0.90006511998471
  C   3.18034320191144     -0.05997417207184     -0.55092273246371
  C   3.74987663368520      1.11054583445333     -0.24997630456703
  C   3.22481267303269      2.50403352416661     -0.05489642979036
  C   2.35520041945224      2.64763090181384      1.18584289030924
  N   1.74230243600642      3.95861262982929      1.22726145724785
  C   1.01387392866811      4.17885318393873      2.47262144904493
  C   0.20387477281489      5.39206723616034      2.40585372279766
  C   -0.47961247272963      6.37184142826250      2.33599630825450
  O   4.42179048846407      3.28455699838624      0.08257090776242
  C   5.51817262282136      2.51125978733733      0.12672971863050
  O   6.63182188971161      2.89703309804820      0.28382762940965
  N   5.11450880351082      1.17882146710858     -0.05645053100201
  C   5.95612406309986      0.04972854169638     -0.13669258602743
  N   7.20797573062032      0.00889224471577      0.02109519943638
  C   5.18203374927182     -1.16814811472201     -0.45478368071235
  N   3.91992775088988     -1.21866326597401     -0.64885646332900
  H   2.69224712335495      2.85671968365084     -0.94138329645353
  H   2.99945093846270      2.53144726680958      2.06223807231627
  H   1.62932614469920      1.82305403642079      1.19899835545986
  H   1.10876805721631      4.07780169469719      0.44374549479679
  H   1.74089302769094      4.27451798253764      3.28331869479690
  H   0.35574694787776      3.33516732017671      2.72890086873038
  H   -1.07978733201828      7.24869054844639      2.28134979730630
  H   7.60328788044375      0.92491916142397      0.22541426469172
  H   5.76706660246252     -2.07862690853951     -0.52873768666124
