29
Coordinates from ORCA-job 6362optt
  Br  2.22944812664772      1.08339995010909      3.31455605088514
  C   2.78536610757565      0.56151543175425      1.58964577189551
  C   3.18617272278042      1.50188881593537      0.67545519665651
  C   3.36011789190900      2.96897003841886      0.88801530557402
  C   2.57176939527226      3.83813467096104     -0.11209124105239
  N   1.27876709169027      4.23491974896476      0.42206349764842
  C   0.24326627824181      3.21961436923309      0.47269971384980
  C   -0.22076387599100      2.65190559153878     -0.88309539363080
  C   0.60398339407132      1.51793451939800     -1.43692495497281
  O   1.07806623659075      1.47218255370993     -2.53657259771406
  O   0.69902063714782      0.52273519127224     -0.53167727733825
  C   1.39043181534054     -0.67492516633565     -0.91509183282613
  C   2.71057492584833     -0.92826877471533     -0.22102320230372
  C   3.80114909208955     -0.19122863831725     -0.46954061092716
  O   3.58447432022854      1.17648521659193     -0.62032304396858
  C   2.67245746753685     -0.93564465930920      1.30807992371442
  O   2.48102326507842     -1.78381454195608      2.11689539967415
  H   4.42677481075890      3.16240310420372      0.74650749945211
  H   3.09279450214963      3.25364946639736      1.90163706904153
  H   2.51601248111415      3.32683406356669     -1.08179478336697
  H   3.14072796188441      4.75324095469910     -0.27188310081530
  H   0.94034754189256      5.05270948879268     -0.06860504773110
  H   0.57431654687387      2.40318421058534      1.11856718159039
  H   -0.61925584605303      3.66967728042711      0.96445176601392
  H   -0.25884957685851      3.43486851224052     -1.63990592272994
  H   -1.22994225512764      2.25040982177903     -0.75958898458301
  H   0.71199188576777     -1.49161340855320     -0.67191487072529
  H   1.56503810215413     -0.65493184426884     -1.98886579361652
  H   4.76171895338545     -0.39123596712336     -0.00067571769386
