25
Coordinates from ORCA-job 6365optt
  Br  1.10530650056854      0.11948108923008      0.05073860733227
  C   2.99683608575562      0.01564134314246      0.03935124174871
  C   3.62268294534340     -1.22566151445524      0.08536017450752
  C   2.83306975807972     -2.52188241819853      0.13153504076575
  C   2.36636492354569     -2.78170127081421      1.50091951354578
  N   2.04364125362009     -2.99052104901528      2.58005337272630
  C   3.70451747544078     -3.69105724214472     -0.37469465511632
  C   5.02710551147783     -3.70907527911751      0.39260142880304
  N   5.70004046443293     -2.46275232204714      0.12994006838039
  C   5.02785922904924     -1.27008521218560      0.10553270290319
  C   5.75842357585254     -0.06208583237944      0.06681310224771
  C   5.08683090377437      1.15263529137289      0.01330745146063
  C   3.70499909504146      1.20591320611791     -0.00097964239689
  C   7.18380856867759     -0.11494862627360      0.09593969173529
  C   8.38082943614409     -0.20366441295493      0.12648610967224
  C   3.01440187461778     -4.97436805543497     -0.27173825728858
  N   2.49201924708696     -5.99063627986122     -0.19606522705899
  H   1.95018090375805     -2.43626411385013     -0.50343419427173
  H   3.91851432375688     -3.50590377795527     -1.42987718778993
  H   5.65007284554099     -4.53157345958445      0.04576536852204
  H   4.81663930290383     -3.86323883462889      1.45756023013328
  H   6.69385619525961     -2.41179261314603      0.29124742793123
  H   5.66595580764357      2.06601048811555     -0.01092126831419
  H   3.18174346826814      2.14961917393822     -0.03552923094750
  H   9.44330030436026     -0.25708827786994      0.15408813076874
