27
Coordinates from ORCA-job 6366optt
  Br  1.28451770391769      0.21967967718817      0.06431107572053
  C   3.14971429687570      0.28706022255556     -0.09947540591902
  C   3.79459182095312      1.45973586180260     -0.20804229987165
  C   3.28450557254675      2.87270905160436     -0.21846237986348
  C   4.55683067418918      3.67924096047520      0.07574254400139
  N   5.63091679356073      2.84214425569930     -0.47924641830178
  C   6.98109481123399      3.17810627773909     -0.12220495501182
  C   7.28092803273407      2.93283843752203      1.30839305256064
  N   7.46840247889744      2.74024623611972      2.42200500401540
  C   5.22183622279599      1.50572812447773     -0.33448944491773
  C   5.93227143783937      0.36664260449165     -0.29985150584669
  N   5.25252900071360     -0.83081702942464     -0.17941383150935
  C   3.88200929626199     -0.97987103226022     -0.08076014310496
  N   3.25594905494189     -2.09511292011208      0.04078600400743
  C   4.01970345541526     -3.31063283709673      0.14838487597973
  C   4.83295452090608     -3.62037195927012     -1.04692760764006
  N   5.49733450709083     -3.79750583369333     -1.96452984491661
  H   2.49336989505733      3.03695368601015      0.51022755094088
  H   2.88824144871001      3.10852227703944     -1.20917178612143
  H   4.68595184913701      3.80147804815206      1.15913153913271
  H   4.56559658017750      4.66062260972913     -0.39607124290146
  H   7.16302827969886      4.23134304493333     -0.33692787605156
  H   7.68052310704349      2.59765252829563     -0.72644937579213
  H   7.00812121910803      0.29550388021817     -0.35526053299145
  H   5.80616557108294     -1.66919743753860     -0.25904435169622
  H   3.33490621350467     -4.14364509578519      0.30350307683908
  H   4.70900615560640     -3.29905363887242      1.00584427925960
