30
Coordinates from ORCA-job 6369optt
  Br  3.41252979544354      2.04858281318750     -2.82179205659666
  C   3.86237233461148      2.51907828697472     -1.04727475143707
  C   2.92763338179102      2.47755390968253     -0.06227531308718
  C   1.45122971492013      2.56613797796222     -0.27473676978856
  C   1.13142141792840      4.02179227672630     -0.76706491218646
  N   1.94924982461245      5.11852562241238     -0.24390864468222
  C   2.90684254205445      5.69551642709530     -1.17176578340910
  C   3.87437400493084      6.68621718801410     -0.48577502192947
  N   4.63220985119404      6.20124269537722      0.66020491133911
  C   5.80175498959348      5.32347078595315      0.46904648043425
  C   5.23474948505076      3.93882410091589      0.35099651626622
  C   5.02228241705728      3.32596711697384     -0.83418500527639
  C   4.49710044546897      3.49741396927205      1.53030209057010
  O   4.75163394850913      3.76487408119357      2.68533241264641
  N   3.34266437795284      2.78988679791494      1.20283722087971
  C   4.76144013462721      7.24343745332303     -1.53558007488779
  N   5.49929065350568      7.63733861859129     -2.31986886568456
  H   0.92879777277115      2.35824313722138      0.66057267205280
  H   1.09365822055129      1.85928861485208     -1.02078995350169
  H   0.07732565979539      4.20879372936350     -0.54873587226757
  H   1.23532212185922      4.02895457753499     -1.85337310626544
  H   2.37397276158263      4.93275436243332      0.65362757386720
  H   2.36485058301000      6.28440887551497     -1.91796450140624
  H   3.47895041310861      4.95212077355728     -1.73222453755787
  H   3.26119733613410      7.50865337939728     -0.11120313119038
  H   4.85663047918002      6.96837911234921      1.27630775556144
  H   6.42331450246284      5.42481995073420      1.35688815419304
  H   6.39313402575415      5.58798216428546     -0.41399622153710
  H   5.58429239900322      3.63811180917365     -1.70867301572160
  H   2.69277440553562      2.68362939201258      1.97107175060307
