23
Coordinates from ORCA-job 6375optt
  Br  0.95674050473488      0.53803971438628      3.76082020458046
  C   2.39237059189040      1.55295066350445      4.37971825028988
  C   3.49016500090612      1.89156998974347      3.65138920117382
  C   3.25543535879510      2.46293860293154      2.34520689551567
  C   3.94435818848694      3.60418841952192      2.04265703281607
  N   3.06156653394867      4.66138397206896      2.11978137945496
  C   3.38150739099367      5.65935737650800      2.86898617167785
  C   4.72985536738219      5.87677642048631      3.35296680275457
  N   5.78070778623909      6.06689981241197      3.77767185527302
  C   2.31782145548361      6.26036263972902      3.74546625111235
  N   1.36300944517726      6.95987842443323      3.34994969343351
  N   2.48864683813025      5.78551470787814      5.12700712474761
  C   2.03950615096443      4.45770897542403      5.31042558810533
  C   2.80649655124316      3.39419875999575      5.55187377261882
  O   2.21021840860164      2.11503812367152      5.60142284167596
  C   4.26042006122601      3.23326109270774      5.32122807049294
  N   4.58038616113499      2.44131429755131      4.37909892879359
  H   2.24337696621363      2.37174017539855      1.97085975236441
  H   4.98258071583262      3.74222532599830      2.32807990554091
  H   0.73171321284592      7.17388947025918      4.12371704143075
  H   3.45847461979808      5.89085265044494      5.41209305427274
  H   0.96855618707861      4.31487268967689      5.21185223902782
  H   5.03508650289267      3.73603769526844      5.89272794284688
