24
Coordinates from ORCA-job 6378optt
  Br  1.77685079873381     -1.71171631150841     -0.11375856152151
  C   2.90628770589579     -0.21805531071008     -0.22788267173552
  C   2.59568072784359      1.00757892071655      0.19966253679352
  C   1.44101977843517      1.57519810412630      0.85933002026224
  C   0.22756958682916      1.77218426281574      0.35682371480897
  N   -0.54663087722788      2.79701390761794      0.90093906807920
  C   -0.01405520107334      3.95074384285693      0.90693929001697
  C   1.18801552299491      4.48486335436869      0.12757062709521
  N   0.73855797488300      5.67850338074765     -0.48506589620470
  C   1.51345212377019      6.54884310582137     -1.21781812163566
  O   1.05156951153948      7.50873371228371     -1.77621649930942
  N   2.37608198719021      4.14101777904997     -0.09399328554394
  C   3.47571492956820      3.35875791108160      0.09134954361547
  C   3.64286733486903      2.00969750313271      0.06658257279353
  N   4.97707818031243      1.54729619460482     -0.01421539992781
  N   5.21936506177570      0.39222987370552     -0.38388187783504
  N   4.17184038881803     -0.43768244313583     -0.72197001736598
  H   1.70532432769284      2.18411441390812      1.71989281639210
  H   -0.19543452654809      1.21810147700269     -0.47310149346492
  H   -0.57790337047182      4.74892019525236      1.39053982660695
  H   -0.24478350115004      5.90846927283411     -0.45875041002010
  H   2.57450034614479      6.27819334793694     -1.22835843681497
  H   4.40458965420672      3.92310874105908      0.09809172642548
  H   4.47944153496806     -1.37911523556854     -0.90570907151010
