26
Coordinates from ORCA-job 6382optt
  Br  1.31642573409049      0.67925189478215     -1.18335107790685
  C   3.03742148263188      0.18300656050141     -0.65044188128677
  C   3.51704511363931     -1.08383025351824     -0.71908169457193
  C   2.72804808803774     -2.23145998848629     -1.27850920136759
  C   2.01198429688483     -3.12532933463096     -0.23246168072587
  N   2.82144896171551     -4.06962558803319      0.50816691577597
  C   3.91448321342995     -3.55957516571752      1.32520350632775
  C   5.25128506129665     -3.55882909362013      0.60953854202852
  N   6.15859541119461     -4.42936701407967      0.77312361923138
  N   5.46215495608304     -2.57833455050445     -0.35843212455402
  C   4.88282661110053     -1.29431495572388     -0.28634822369134
  N   5.65737277941641     -0.33899463278908      0.10084248006256
  N   5.15978945730168      0.89317295955687      0.10570844082895
  C   3.87852536920036      1.30058898908697     -0.20338623363347
  O   3.54957350848845      2.46095204921953     -0.12205818549955
  C   1.26082528205208     -2.29961907464890      0.73126054339912
  N   0.71537558833735     -1.64742689390390      1.49811742112919
  H   3.39751712870286     -2.88199495454181     -1.84279179814502
  H   1.97483197074421     -1.83751154712811     -1.95866452941067
  H   1.27261222121438     -3.71423122461693     -0.77925467982981
  H   3.11973437327633     -4.83351763937000     -0.08419271287082
  H   4.02187659055043     -4.19095094710837      2.20761876473476
  H   3.64927802690841     -2.56054448480626      1.68054756708209
  H   5.88861181835118     -5.11360848842229      1.47380345865758
  H   6.43343353791327     -2.56310583037908     -0.64558448772165
  H   5.80092341743795      1.61819920888218      0.39762725195751
