25
Coordinates from ORCA-job 6383optt
  Br  1.38885950113035     -1.78823078415156      0.63181356393859
  C   2.53189506385674     -0.40133497818356      0.10477110945508
  C   2.29284486873522      0.89059363127213      0.36277802004396
  C   1.24057997042498      1.51687086966383      1.17669237881668
  C   -0.04171615050775      1.76075734513368      0.87259115811874
  N   -0.36709923946116      3.06977269647939      1.26691709050245
  C   -0.67879672061355      3.86274837489821      0.32592879754861
  C   0.08585702999324      5.16481122068090      0.27621356315653
  N   -0.41719179012786      6.31591325153113      0.30530175277999
  N   1.49935531758242      4.89786155919056      0.19906371437953
  C   1.84443256054895      3.77800318227205     -0.30700658575739
  C   3.17797267760250      3.16888879952874     -0.30278311738311
  C   3.31853840326377      1.83951835004188     -0.12554262907853
  O   4.58779726867567      1.32171888621903     -0.30189894733032
  C   4.79089753921696      0.01846928680364     -0.62578019647467
  N   5.90367258114888     -0.44944893616259     -0.96935055906369
  N   3.66989887642912     -0.79418696460409     -0.55661818073315
  H   1.64582153390010      2.19994477185518      1.91771956419618
  H   -0.60554522897530      1.24384966966683      0.09646772149669
  H   -1.09781839346163      3.51152492088940     -0.62771557306809
  H   0.32550927591286      7.01593583010518      0.25285976439320
  H   1.11413558482697      3.13911464072159     -0.79845873379682
  H   4.06053153840023      3.77258523710459     -0.46959415044474
  H   6.61103266487266      0.27707232910262     -1.01211532551350
  H   3.83753526662559     -1.76875319005879     -0.75125420018222
