28
Coordinates from ORCA-job 6388optt
  Br  1.77524157083136      5.57240933392380      1.73520610961567
  C   0.41657061529732      4.55078185422743      2.59817240275677
  C   -0.32843966454557      3.57910291723971      1.90376239409009
  C   -1.39389237576232      3.03214464018300      2.62348008210574
  C   -2.36120502502067      2.05056054504854      2.00137399725207
  N   -2.23953141430958      1.93297679909592      0.56283379063366
  C   -0.83790336086484      1.84591744307314      0.19356720922258
  C   -0.79429701259952      1.30337987399570     -1.22335101716026
  O   -0.29122541554155      1.82783860899965     -2.17601082832988
  C   -0.01370622462390      3.11525239361206      0.47826975307368
  C   -0.21874031361861      4.24271219861677     -0.58342540173058
  N   1.07834127978666      4.27532721814445     -1.25671724836367
  C   1.85770476869884      3.30827227634139     -0.67552338686786
  N   1.39421835034852      2.69555901065392      0.33687879028550
  C   -1.59261974098036      3.39075163236218      3.95352502260297
  C   -0.74083093027402      4.30237866849379      4.53393402651478
  N   0.23954167102338      4.89028479375597      3.85178119287362
  H   -3.38118473332242      2.34202206533047      2.25549777501247
  H   -2.19733178083027      1.06239639794436      2.44330791935264
  H   -2.67388391338246      2.72671633514099      0.10244030764682
  H   -0.39455654310355      1.05034224934294      0.80716070986140
  H   -1.32883105839065      0.33969799879780     -1.31893630212580
  H   -0.42583000626081      5.20397843668973     -0.11335374675785
  H   -1.02230738512423      4.00863616763756     -1.28230743267462
  H   1.10110523626333      4.35799074515368     -2.26120321066319
  H   2.85214999704428      3.12645987318153     -1.06723662541341
  H   -2.40962481425910      2.95889036362174      4.51859019813769
  H   -0.84593177647928      4.59721915939172      5.57128351904896
