24
Coordinates from ORCA-job 6397optt
  Br  0.80106879695572     -0.04411444014611      1.44025779222840
  C   2.11320263547627      0.67605180162789      0.31171371136724
  C   3.23277074758640      1.46183376529856      0.71002826615092
  C   3.02345917247196      2.69710369186142      1.49027036049803
  C   1.80482040672101      2.98204966722871      1.97814161654497
  N   0.97223778632947      4.06520470703443      1.56787172708240
  C   0.08241192886389      3.29533696654296      0.69650605725523
  C   -1.17257128334775      2.81774544421501      1.35731300560255
  O   -1.48945493656367      3.15542845606940      2.46122165027001
  C   0.49037080373340      2.82292974044496     -0.49198403542239
  C   -0.15589544976083      1.73852659886833     -1.30120759209064
  N   -1.31478338815140      1.68024921917490     -1.76847064654574
  O   0.67145362651801      0.65423307709597     -1.59944364293726
  C   1.92367295158910      0.66849461858195     -1.04842489592688
  C   3.06443218491692      0.77736503995166     -1.85593237683194
  N   4.24758158983597      1.04299634305240     -1.33238738734998
  N   4.28542263417757      1.51725037574995     -0.10613967868480
  H   3.63587799020804      3.49466585952647      1.07904030376618
  H   1.22162652267823      2.22168020488072      2.47635863634651
  H   1.50102714991510      4.73956831562058      1.02264633139670
  H   -1.78123484642025      2.11278203205264      0.76981529885303
  H   1.46691233449140      3.13885021755567     -0.84944459486893
  H   -1.83485570283733      2.52944430096248     -1.56759947259840
  H   3.00344634461276      0.61432399674903     -2.92415043410521
