23
Coordinates from ORCA-job 6398optt
  Br  1.37081069680250      0.02298642358118     -1.41841606722629
  C   3.03490714919362     -0.12510764103414     -0.58018467607851
  C   3.71326949446733     -1.27855732364708     -0.46317373914193
  C   3.55049761051681     -2.66819406945458     -0.82300282913589
  C   4.66998700898334     -3.27967616701612     -0.37026613030214
  N   5.08332211054781     -4.55998077506571     -0.38082119214808
  C   4.33204648945557     -5.56847844482184     -1.05598265286777
  C   5.11165660177355     -6.86484076008337     -1.05328557010148
  O   6.21602238319499     -6.94690649056385     -0.58576567338825
  C   4.42971466439949     -7.99259101552482     -1.66687270495743
  C   3.83992156296355     -8.89755721938239     -2.18342346735678
  O   5.54996637479461     -2.41572535540012      0.24179511244730
  C   4.98231173070756     -1.18403499473660      0.20023163622715
  C   5.50856690256905     -0.05081824161419      0.69603255817952
  C   4.73973201089886      1.16283688142708      0.56243863047401
  O   5.02758255687243      2.25527265368665      0.94910715134353
  O   3.50462154247105      1.02972107242875     -0.10609756070511
  H   2.71871375709013     -3.12491334027937     -1.32808344996576
  H   6.02844966339950     -4.78617904406697     -0.10541658744130
  H   4.12162638266323     -5.30452408088598     -2.10194772968302
  H   3.36200978446354     -5.74753452982300     -0.57619062783857
  H   3.33014105861860     -9.71304393153164     -2.64161777975263
  H   6.46312246315278      0.00584639380817      1.19394334941944
