21
Coordinates from ORCA-job 6401optt
  Br  1.05628313098882      0.19603762611452     -0.36483432342764
  C   2.91838520439125      0.07014219296987     -0.23801723424483
  C   3.57658568073911     -1.05499652316134      0.07290063889946
  C   2.95345082897270     -2.35283739980693      0.29817459834875
  C   3.70554302046942     -3.45595710405806      0.28458814255349
  N   5.07345163986524     -3.39228530717801      0.11186669365804
  C   5.73622767743417     -2.18553082726619      0.15722979253222
  C   7.21660348104400     -2.28526459105769      0.06907996037404
  O   8.02346660890622     -1.49350825564415      0.46376024859125
  C   7.69268965585510     -3.53841132873785     -0.57570168760129
  N   8.02426854673770     -4.53702981570133     -1.02925882791439
  C   5.04081717208755     -1.01285505949029      0.19147306217712
  C   5.60654179943841      0.34967182786419      0.30910624344315
  N   6.55471010301917      0.77561027586347      1.02421543239554
  C   4.86665527958090      1.41797678771843     -0.47470844652578
  O   5.37580178223214      2.36492189705888     -0.96748144284040
  O   3.51080927292897      1.25277085140155     -0.56844724312767
  H   1.88657940108371     -2.42609475528282      0.44041650509226
  H   3.29745847167826     -4.44837827624923      0.40505677238870
  H   5.60207685284190     -4.24798496263080      0.05938979970702
  H   7.00359438970516      0.02700274727379      1.54719131552096
