26
Coordinates from ORCA-job 6405optt
  Br  1.23065617870434      0.44097911123321     -0.50085788057402
  C   3.09584805433897      0.21388827844616     -0.29989649882218
  C   3.65159228120229     -1.00293302043295      0.06572067265318
  C   2.85505047388297     -2.25214776284818      0.30025434337319
  C   3.67013383915107     -3.45814863778975     -0.12366034567825
  N   4.96733212017918     -3.45450514517629      0.53726975969701
  C   5.47151297588585     -4.68518371373232      1.07549563785116
  C   4.68840652506984     -5.15980579065690      2.27965765366757
  O   3.72881491116388     -4.59392145654745      2.71929110600008
  C   5.68424217750663     -2.30980701605860      0.73384361871923
  O   6.75745204253770     -2.30174019289837      1.29921254190190
  C   5.04019495685762     -1.05165199832560      0.22430104405171
  C   5.79988387432436      0.09821015284439     -0.03538973140033
  N   5.23471200709074      1.25200821530709     -0.40961870737122
  C   3.92102465305131      1.30840976275179     -0.52396726609835
  C   7.23267237099129      0.12620887820145      0.04251554878073
  C   8.42517765070811      0.22609197722512      0.06470023275364
  H   1.92037901542045     -2.21839850839541     -0.25666597578730
  H   2.61158596739853     -2.33898432172449      1.36341409851626
  H   3.79997801662892     -3.46499868578914     -1.21136910880418
  H   3.14920921460412     -4.37019629463209      0.16208235231118
  H   6.51251889657207     -4.54440351189240      1.37263084695031
  H   5.45132075656904     -5.48503185759969      0.32541036294513
  H   5.05924572796770     -6.09810885052439      2.73437280412063
  H   3.49320313251475      2.26103768467590     -0.81500500326953
  H   9.48585217967820      0.29313270433893      0.10525789351246
