26
Coordinates from ORCA-job 6417optt
  Br  1.10645595617278      0.14093701837985      0.19816960979704
  C   2.99927124603582      0.07632398058229      0.04595986979786
  C   3.63483305971172     -1.15932549329794     -0.08013092229374
  C   2.91996189028100     -2.47850029892131     -0.15406092663129
  C   3.85646031969722     -3.58443591549280     -0.61826592277383
  N   5.09904732640074     -3.49417053306681      0.14644404258674
  C   5.87770861152639     -2.30876319778156     -0.17847200412757
  C   6.48583447869420     -2.46405204748912     -1.56777541661075
  O   6.00408686058801     -2.11178809108098     -2.60245017919115
  O   7.62214830647321     -3.20317323686843     -1.49570598497723
  C   8.11570869799589     -3.67013839190632     -2.74161810008622
  C   7.33066101317430     -4.83247467578125     -3.18253004021503
  N   6.70858051334713     -5.74480627331627     -3.48518164848060
  C   5.02133164826719     -1.07070491524759     -0.11806516996696
  N   5.68239442927719      0.08501243905695     -0.08968977243649
  C   4.95075035272954      1.18052880802045     -0.00264717023812
  N   3.62258310201673      1.22874680603808      0.08044028244023
  H   2.07024269871610     -2.39163725439047     -0.83283601674059
  H   2.51671132346294     -2.71749491020110      0.83354851634209
  H   4.02012240185456     -3.50053804733421     -1.70006802566919
  H   3.40892063078387     -4.55796616678346     -0.42605299723713
  H   5.66312786427894     -4.32984953045482      0.05433275429860
  H   6.68801589765005     -2.19682118194488      0.54212322623930
  H   9.14826496695778     -3.96710100670359     -2.57633082681366
  H   8.06157802336278     -2.88936150503145     -3.49898211246523
  H   5.47319838054381      2.12955362101675      0.01384493545293
