25
Coordinates from ORCA-job 6429optt
  Br  0.98222765317248     -0.15161038301439     -0.23742605733167
  C   2.87711471301562     -0.06408984657152     -0.10356291219957
  C   3.52448381975420      1.19472204167253     -0.08897375849111
  C   2.76299895927101      2.50125013659345     -0.09058659544026
  C   3.53474120380657      3.55217604061792      0.69164272509018
  N   4.89794419024553      3.65708417084880      0.20999708177324
  C   5.60690097547104      2.56515121557374     -0.23193674914466
  N   6.74513847911603      2.57810486598700     -0.79806937474503
  C   4.91328563190981      1.25322005480542     -0.07001904412497
  C   5.62304994560919      0.04440186895466      0.02997187249877
  N   6.96902830374136     -0.22465427374291      0.16504293111801
  N   7.12256609707576     -1.48467122136081      0.25495869789259
  N   5.92278363079414     -2.09137818679786      0.18254122099139
  C   4.93640478734520     -1.17241353547935      0.05147239400718
  C   3.54797268366719     -1.26093917432850     -0.03757040661038
  C   2.47014712093308      2.95935902423950     -1.51174113179221
  O   2.61194222341103      4.08909992923252     -1.88405305992274
  H   1.79002661982546      2.34243152396285      0.38322086807048
  H   3.51937373582235      3.28846692964409      1.75235859022536
  H   3.05801645198018      4.52287012942447      0.57247388123651
  H   5.18744116000144      4.54678669251108     -0.16077460391040
  H   7.11096784827271      3.52630227502861     -0.88125810127499
  H   5.87216422038155     -3.09405331383610      0.24149081585517
  H   3.01881738609124     -2.20284291902109     -0.04614439135453
  H   2.10346215928553      2.17222595505582     -2.19705489241636
