29
Coordinates from ORCA-job 6430optt
  Br  0.93044200297114      0.10230039160824      0.08599731683005
  C   2.83074356002487      0.05490663078776     -0.03347703077318
  C   3.49510352499543     -1.16949135442030     -0.09531071214715
  C   2.77264735167827     -2.48976824163683     -0.07982934621896
  C   3.68086323255152     -3.57973984899581      0.45685708190991
  N   4.93791696874423     -3.56922590270778     -0.27293919410184
  C   5.67083253188871     -2.40389118369362     -0.36732072739310
  N   6.91892694234622     -2.33275747364815     -0.61986025483581
  C   4.88608660248193     -1.14667075785234     -0.21078218952517
  C   5.57585197551204      0.06252353960432     -0.22701117774967
  C   4.90077689375892      1.25935426989076     -0.13469034318033
  C   3.49699116593427      1.27641232822180     -0.04518922383955
  N   2.88286431796261      2.50625465241233      0.09184239930036
  C   3.51052398433079      3.63321820845520     -0.57650383571389
  C   4.98525748060501      3.70445328529883     -0.24846693387937
  N   5.68870130575123      4.75915016781955     -0.18335969714645
  N   5.57238184727649      2.47857385819918     -0.07976572775359
  H   2.44962825210355     -2.74335234236821     -1.09438105011874
  H   1.87807859838116     -2.42930164376566      0.53845100403902
  H   3.21785730601924     -4.55682083878497      0.32428092096509
  H   3.84048400637998     -3.42391947532139      1.53077086526975
  H   5.49677134674995     -4.40558302453801     -0.20058556922283
  H   7.34079708158096     -3.25600572713470     -0.69954630173175
  H   6.65438458849739      0.03641315833994     -0.31566708311629
  H   1.87635549920749      2.48352801750569      0.02630590802417
  H   3.03295482719878      4.55250583707871     -0.24438260321437
  H   3.41738667471355      3.56980054547538     -1.66967320845923
  H   5.12128082471206      5.58754228004225     -0.33246031984444
  H   6.57510930564216      2.47959064412783      0.03269703362733
