27
Coordinates from ORCA-job 6432optt
  Br  1.10497613752380     -0.18445247652200     -0.06897863197001
  C   2.95224003610930     -0.00448451655761      0.24629032750501
  C   3.78819370793445     -1.03059510073767      0.01126138436915
  C   3.43088822815356     -2.37903412331616     -0.55258203568960
  C   4.79183601243478     -3.00529578666398     -0.90190875367964
  N   5.72249104820284     -2.27669567618485     -0.04708509494148
  C   6.77378322316049     -2.86564255183120      0.61687906974110
  N   7.36384433184439     -3.95122406893856      0.34238202246912
  C   5.21618976136976     -1.00160203472171      0.23413311905077
  C   5.92540072990783      0.10871025558574      0.52344464220720
  C   7.41239850350041      0.26330843334058      0.33511277294904
  C   7.72381749691047      0.73371720160377     -1.10074074318997
  C   7.22119631960489     -0.21902846861226     -2.09145410273345
  N   6.80692612082618     -0.98064527834203     -2.84108939802633
  S   5.11880625427853      1.59379771038123      0.92762426487957
  C   3.36363642513055      1.30726320181654      0.75138710766836
  O   2.62433226051132      2.21099388067256      1.03181442238945
  H   2.76886297033297     -2.28579421433074     -1.41146019774907
  H   2.90465032215905     -2.96128091855984      0.20817783322994
  H   5.04472269992508     -2.85123642690397     -1.95333950345810
  H   4.83664829896604     -4.06829303214604     -0.66989208844040
  H   7.07864662120111     -2.30529469812704      1.50038209666511
  H   7.02252257987718     -4.36993045367584     -0.52187612830003
  H   7.93951123834996     -0.66842952625177      0.51802904832269
  H   7.81225966769395      1.00279383249785      1.03021834308340
  H   8.80020275429457      0.84403365614057     -1.23631400320614
  H   7.25901624979649      1.70234118038446     -1.29241577314569
