28
Coordinates from ORCA-job 6439optt
  Br  1.10511291983003     -0.03458203309323      0.89752173789068
  C   2.88387417302890     -0.01771811993157      0.27174362520830
  C   3.61001149110394     -1.20200432264974      0.16626539696383
  C   3.01361326336750     -2.55134750483292      0.45417877617474
  C   3.76295271614384     -3.62693083365656     -0.30852279831894
  N   5.18222519319539     -3.50382421136890     -0.03039700776378
  C   5.83842773967092     -2.30787630529877     -0.25598609334400
  N   7.08686876085341     -2.15698366578290     -0.41766047109882
  C   4.95434448338059     -1.08857406536253     -0.21656358317603
  N   5.53345632897113      0.06623871341306     -0.52575317177914
  C   4.81154780704103      1.16706693089567     -0.46143176774684
  C   3.47984694005614      1.19516678535338     -0.05720874864995
  N   2.79004873217429      2.43190578808040      0.01034619109727
  C   3.12222390055412      3.32170322338872      1.04471381782548
  N   2.83824774878572      4.54250129310095      1.16808121410910
  C   1.81159620936304      2.72698360051777     -0.94190345988782
  N   1.53738004197921      2.09106963466707     -1.99536873386534
  H   1.96101939522453     -2.56100580301059      0.17380003500568
  H   3.06614038313023     -2.75169718501341      1.52847132759049
  H   3.54868297742349     -3.53438845067874     -1.38028288688999
  H   3.43441769442180     -4.61340304880203      0.01410597230301
  H   5.74283270904981     -4.32252093997884     -0.21030336689342
  H   7.57344832504688     -3.05317441207233     -0.41461347864838
  H   5.29549942924850      2.10026681331510     -0.73354038695188
  H   3.70389386106656      2.83056379229156      1.82356018647825
  H   2.33105593727971      4.93159917025407      0.37661083153204
  H   1.22167768590695      3.60231865601963     -0.68332340559162
  H   2.15155315270225      1.28964650023566     -2.14253975157293
