18
Coordinates from ORCA-job 6445optt
  Br  1.34856901851187      0.63035032256405     -0.21048123018441
  C   3.19755635243006      0.40276286429375     -0.01973690503322
  C   4.06117586748149      1.45345852436549      0.22968834593875
  C   5.44820585841730      1.18829285714492      0.34927696655812
  C   6.42872875829478      2.25909243865470      0.63861499642398
  N   6.39528977263761      3.48088820453582      0.28706652918291
  C   5.36270296014966      3.99990512890171     -0.49168750611273
  N   4.11672511115686      3.79486304882080     -0.39526062273133
  C   3.59038565798800      2.85726050762436      0.48815855738361
  O   2.79286355780404      3.11313642886926      1.34288451807904
  N   5.97431796501556     -0.02542594718914      0.28532681107524
  C   5.13838333352179     -1.01583395315814      0.02974659423873
  C   3.75057347630720     -0.86694683656971     -0.14150023295894
  S   3.08467282109952     -2.40013065898867     -0.43893565782948
  N   4.62988890598519     -3.13428992542951     -0.32323732291610
  N   5.56008443676267     -2.33613971042648     -0.08813215580548
  H   7.30026917792386      1.91716527886864      1.19376405444644
  H   5.71160696851249      4.71459142711811     -1.23255573975512
