26
Coordinates from ORCA-job 6447optt
  Br  0.95116140860247      0.20086009270416      0.25572653670109
  C   2.82659660245877      0.21421961088471     -0.02870083920516
  C   3.45160278592820     -0.81889379033279     -0.62862223983470
  C   2.69251987689160     -1.96852294592642     -1.22696322449753
  C   2.48983617197971     -3.15826624371744     -0.25306339705818
  N   3.27034936627211     -3.10460314642993      0.97082886985740
  C   4.59502347372013     -3.44469684067565      1.17660279260179
  N   5.06210574835022     -3.82748383596388      2.30003249968206
  C   5.61139799923149     -3.29531535744551      0.09398797342436
  C   5.38412287476843     -3.42943002444903     -1.37477674100899
  C   5.72050077346523     -2.07272251803617     -0.81996555588845
  C   4.91232475004192     -0.83227850359047     -0.61951203488984
  N   5.67202043637325      0.19042677093581     -0.38715428469771
  C   5.24438279307857      1.45058055033950     -0.07143482999610
  O   5.91844170092703      2.43771081997896     -0.10619276677831
  S   3.55817799997877      1.64826819577052      0.56611190110862
  H   3.20452041868516     -2.27885510809888     -2.13336771609583
  H   1.71463964042827     -1.61663545576317     -1.54719513711286
  H   2.63481289557614     -4.10509849331208     -0.77896069081728
  H   1.45089483721592     -3.14574961009257      0.07191935302236
  H   2.71986480219345     -3.19025893210886      1.80961815539714
  H   4.33319957085635     -3.91785929337077      3.00673937217306
  H   6.56479314837991     -3.63908894311737      0.46547386317005
  H   4.40530227659410     -3.67066682405697     -1.74097090211621
  H   6.18030017496528     -3.89555634115603     -1.93777232784617
  H   6.74910747303744     -1.78208383296963     -0.97438862929461
