26
Coordinates from ORCA-job 6448optt
  Br  1.34251370401247      1.19578540213112     -0.07903055474963
  C   3.06944347247682      0.45747662933181     -0.03816751563235
  C   3.38112865925649     -0.81138437698912     -0.35299450802945
  C   2.39287707381252     -1.87852501884363     -0.72288343676360
  C   2.23039222148431     -2.90642680398823      0.39666488642256
  N   3.34571315168320     -3.84104010233851      0.58633206409709
  C   4.69844086257881     -3.50287934604103      0.65733092399984
  N   5.52887738397474     -3.94176319965256      1.50573142504928
  C   5.21042202212654     -2.59936002012261     -0.46780997623601
  N   6.64860622587496     -2.72542749922081     -0.63419011949278
  C   7.40677466284481     -1.82234601372442     -0.18087056803994
  N   6.99258515082050     -0.64182213368589      0.40295381853901
  C   5.66930970714257     -0.29601265074197      0.25202144099351
  C   5.30204746036706      1.07258553100367      0.55436247156389
  O   6.05462086759293      1.92466389873037      0.93126172517947
  O   3.97171265350615      1.36533902748733      0.37597299661494
  C   4.76052326406391     -1.18396914355679     -0.19982895065196
  H   1.41733793880941     -1.43087801322811     -0.90138934678075
  H   2.69211299529202     -2.37562560244744     -1.64785005004442
  H   1.35714983117531     -3.51951587612842      0.17177255146304
  H   2.01841273142437     -2.35829724417938      1.32306646680399
  H   3.11405170589557     -4.51735948074702      1.30189974748579
  H   5.07979422461991     -4.51304146763673      2.22125317075005
  H   4.74537914935862     -2.96351901853695     -1.38674432709751
  H   8.48336697501985     -1.93547706975017     -0.26201222430224
  H   7.64440590478608      0.09681959287550      0.61914788885821
