26
Coordinates from ORCA-job 6454optt
  Br  1.41979262811836     -1.72411107372881      0.25631829716495
  C   3.02057842755514     -0.78108089322739      0.05713894999272
  C   3.07527646044079      0.54212985940187      0.06445213413557
  C   2.21039280264540      1.73787731173553      0.11574005848520
  C   0.85254995400046      2.37585789367111      0.18189715803870
  N   1.32078913715773      3.79612968343605      0.16573727647070
  C   2.58269772064226      4.25025988184162     -0.33560356286088
  N   2.67873529660846      5.25629051323362     -1.10371754674158
  C   3.96465077890432      3.75607045232825      0.21851036170474
  C   4.71377939388724      2.47557079818331     -0.18264291703545
  C   6.05214765054877      2.41893480920362     -0.51883984228799
  N   6.51058148674309      1.14610367514062     -0.63685611875483
  C   5.47080420718836      0.39311501314057     -0.38063431160378
  N   4.35956724590420      1.12854352073752     -0.09682795837525
  C   5.38515690177350     -1.06981934325233     -0.36862026635683
  O   6.26937963054907     -1.83605749456096     -0.54735885241406
  O   4.10922464893041     -1.57190339066058     -0.09588445386706
  H   2.56708471781656      2.19554267793447     -0.80335945676210
  H   2.67995280293156      2.24684723116492      0.94956769839676
  H   0.30072863952086      2.18283684213038      1.10007674429361
  H   0.21890393633998      2.15773642511571     -0.67943982256668
  H   0.59283844852547      4.44063144367583     -0.10782866203456
  H   1.76956107810312      5.58925305383135     -1.42328281532833
  H   3.88804441902394      3.77657976662561      1.31050287218536
  H   4.64178357413322      4.56125360145588     -0.05981031502191
  H   6.70499801200770      3.26440774144217     -0.66823464885703
