28
Coordinates from ORCA-job 6455optt
  Br  1.60750932221128      1.91725137937092     -2.45035007358122
  C   2.66671678691887      1.07650548738777     -1.13614540477684
  C   3.54403997648490      1.75996563909472     -0.35028762535507
  C   3.35422108224159      3.18227296685320      0.05913176986502
  C   2.22403348863102      3.17542535269685      1.13517798174745
  N   0.88801937822862      3.35170565690352      0.61154298955844
  C   -0.12305022922011      2.49144576361035      0.19669939288428
  N   -0.33588879410399      1.24405498406681      0.20714639133578
  C   0.45514490072479      0.13219177306230      0.66555583044678
  C   1.00575424409646     -0.70686409805259     -0.53420138247669
  C   2.43105107114276     -0.26890128723530     -0.69088462787851
  N   3.33274359940986     -0.95751551378479     -0.06351966002667
  C   4.53005752906076     -0.37359191885074      0.27612264674894
  O   5.54848207072570     -0.93615856003268      0.58472730060683
  N   4.43103554866805      1.03257978535692      0.37669728578548
  C   -1.18926072235800      3.28497184608101     -0.40863778954108
  C   -2.04149952114502      3.95697502822923     -0.91403655568400
  H   3.06343680365101      3.81080678607737     -0.78007997938072
  H   4.27176897751522      3.58303503929731      0.49230235379860
  H   2.40415636321386      4.00153658796301      1.82497301977530
  H   2.28096723902325      2.26011958646457      1.72174644467679
  H   0.67808724595059      4.30455829963046      0.36083752720799
  H   -0.22148810355065     -0.51055463465797      1.22999485280702
  H   1.28429612714063      0.38066782739893      1.33652622591467
  H   0.38568581220045     -0.51982736280307     -1.40831442094361
  H   0.99789048990183     -1.76478129968703     -0.28459672160648
  H   5.15068643725137      1.49324342920843      0.91491476299773
  H   -2.81259712401512      4.53188145635044     -1.36904253490622
