24
Coordinates from ORCA-job 6460optt
  Br  1.94446899332882      0.96341011593008      2.89863285257253
  C   2.54564431269475      1.43810163449715      1.17609214988908
  C   1.78076707976324      2.05647218185840      0.27724511528230
  C   0.34010183759780      2.49164212549117      0.29530824273634
  C   -0.57272614380882      1.29469093851889      0.20890751913380
  N   -1.47556266323969      1.13372230138771     -0.66012804358091
  C   -1.62465727741356      2.15976529794593     -1.63573275985324
  N   -0.88476644144214      3.15793567549802     -1.84271557900690
  C   0.25715339280221      3.38575012135089     -0.97690683656685
  C   0.25183529001882      4.87985885711946     -0.60282685110647
  C   -0.91806629328280      5.23220218314477      0.19298090134915
  C   -1.88403615943116      5.47763780418082      0.85748745701095
  N   1.48461600436846      3.14081892256966     -1.75403524530339
  C   2.28571958689378      2.45649225403142     -1.03402645282444
  C   3.64190637850527      2.08780242244826     -1.43434443112219
  N   4.48082708541745      1.48349560763546     -0.68713189357022
  S   4.20141338646327      0.99745122646543      0.86406671275391
  H   0.09077846118864      3.04324155140408      1.20701173817504
  H   -0.42463076508506      0.51124563981322      0.95207100313490
  H   -2.48187968876923      2.00924102834245     -2.28404672009678
  H   0.27179905943284      5.45036110632638     -1.53164704752406
  H   1.16433329065686      5.10300939787587     -0.04349774774037
  H   -2.74472486620491      5.71464993630331      1.43602377495566
  H   3.96368613954517      2.35600166986113     -2.43678785869787
