28
Coordinates from ORCA-job 6464optt
  Br  2.87981949832258     -1.46135365735105     -2.24572636258852
  C   2.99908707720881     -0.22894378974785     -0.83372021822381
  C   2.98649113018297      1.09715901356864     -1.05483221903572
  C   2.73747606946111      1.81441322384549     -2.34270949400736
  C   1.23388227147815      2.15286933860325     -2.50912270932188
  N   0.72607544362283      3.15891266611425     -1.58713318675748
  C   0.67302503025263      2.85366705971164     -0.25582229817943
  N   0.89446941612965      3.68976227118000      0.66914391278095
  C   1.09464436454370      3.13310478403425      1.98825568834306
  C   2.56514061235487      2.68349412184330      2.17636829532800
  C   2.89020109376534      1.55061018371092      1.25760235994474
  O   3.07558407093898      1.96844460937823     -0.02003488111774
  C   2.89748271513885      0.24641167700818      1.56573005230530
  C   3.05236264564282     -0.78125135895065      0.53668478624291
  O   3.14244413670313     -1.96513666632176      0.77450153022889
  C   0.72828076792159      4.17416618034573      3.03231965980942
  O   1.21499294433628      4.22651651456446      4.12501160981621
  H   3.05224121760240      1.19324995557730     -3.17878421436304
  H   3.32116828586426      2.73672996658840     -2.35195162723662
  H   0.64709784485092      1.24009727428971     -2.38859514420441
  H   1.06631875005993      2.51312132580462     -3.52305834056889
  H   1.05753235396867      4.10077981520043     -1.75312240845945
  H   0.46458322131703      1.79154334424350     -0.06404595133075
  H   0.44494912149657      2.26282886257168      2.18014592192934
  H   2.71188596269844      2.38157108820010      3.21184295653106
  H   3.21418556498500      3.53468601672568      1.96412930346063
  H   2.75804028606230     -0.07571938569941      2.58812537220785
  H   -0.04546189690985      4.89226556496094      2.70279760646673
