27
Coordinates from ORCA-job 6469optt
  Br  0.93843109512230     -0.31177593442549     -0.05671448924680
  C   2.82301768614367     -0.24813055075347     -0.12409660959072
  C   3.58253895980218     -1.37670870599835     -0.08007676588766
  C   3.28084472579795     -2.78684048472146      0.00435390581222
  C   1.95336780010773     -3.47781033671282     -0.06502063781751
  N   1.35846873471729     -3.37336302441805     -1.38318612252776
  C   0.00896549336001     -3.32257062905105     -1.59211363717408
  N   -0.63484156180387     -3.39150182036982     -2.68306956573086
  C   4.47520843579457     -3.44533368933890      0.08794309520243
  C   5.57671467007208     -2.52295007593715      0.07288424971928
  N   6.92457735597395     -2.88682927327319      0.15084024335690
  C   7.92978498160186     -2.30606432788913     -0.58749796269506
  N   9.17859779018099     -2.48667266811904     -0.49321908332888
  C   5.05382605006429     -1.26904044417585     -0.03505839486610
  S   5.87127063995222      0.23962615466908     -0.05308221202666
  C   4.54038937036642      1.30428032976135     -0.17239841937041
  N   3.28586811915767      1.02726031664334     -0.19786291788135
  H   1.24688424432056     -3.05479321318043      0.64962264337800
  H   2.11218785968657     -4.52341542329465      0.22044016038971
  H   1.95586021315483     -3.55775549405151     -2.17451873947842
  H   -0.55076128109337     -3.18045655838658     -0.66616946596701
  H   -0.01661055230073     -3.52762465908069     -3.48344980927353
  H   4.58866983193571     -4.51962477997645      0.14923793525707
  H   7.18260828745909     -3.60229222371888      0.81362259906010
  H   7.55102088304354     -1.62316559329727     -1.34800125549807
  H   9.42080948153792     -3.13913283247651      0.25320560666715
  H   4.83830068584450      2.34668594157306     -0.23261435048197
