24
Coordinates from ORCA-job 6471optt
  Br  3.49229509700581      0.69671924595049     -2.93615996290601
  C   4.46864363608212      0.48294793870396     -1.34871889222149
  C   5.30591549185750      1.41715507940799     -0.85161015155688
  C   6.09852273930430      1.03180708530219      0.27499301442010
  C   6.42545199408636     -0.27421920683632      0.49564654059377
  N   7.77136566547799     -0.58273193654701      0.59012240709668
  C   8.62283233713171      0.29042211043176      0.93738506857674
  N   9.71127878147992      0.64781262126070      0.09004131067477
  C   9.07222243128397      1.81842321590655     -0.53281978503635
  C   9.41655199797573      3.13920906802775      0.05138268149899
  O   10.09521839153894      3.28252148175045      1.02811136433408
  C   8.01421171274472      1.69147443180883     -1.35755952688146
  C   6.98480050577448      2.71568594837424     -1.75242170759419
  N   5.72953173926137      2.57347802901180     -1.55921543156698
  C   5.46317908534922     -1.29918445886372      0.05025300079160
  O   5.47704999524141     -2.47166162646512      0.33454822315151
  N   4.45225438196611     -0.76175854284048     -0.76503389972867
  H   6.72482849631012      1.81103171599280      0.67539164041059
  H   8.45955891146559      1.02549211688305      1.73120564974335
  H   9.82802972198169     -0.08424705065304     -0.60746727026195
  H   8.96386413254211      4.00366746073954     -0.46891767425191
  H   7.75538794048770      0.67954149006749     -1.66171427927871
  H   7.30388333728337      3.61830272222719     -2.26798463330995
  H   3.79012147636768     -1.44888893964109     -1.09945768669763
