29
Coordinates from ORCA-job 6477optt
  Br  1.07897665028340     -0.38101814318862     -0.32344582375080
  C   2.95938950991430     -0.28552833658101     -0.12369073260451
  C   3.65322561502472      0.92682770821795     -0.04527691098128
  C   2.97229946373439      2.25972513876882     -0.11013851213397
  C   3.07280632922973      3.00161376779465      1.21746532416565
  N   4.39776648731693      3.59038117489161      1.41823199010847
  C   4.46403120349652      4.73234153175334      2.22248970812093
  N   5.46290274816088      5.26602968215207      2.77863749817528
  C   5.54454376027208      3.15258721712997      0.77785933046573
  N   5.83944344215932      2.05439641607425      0.21563706620438
  C   5.04460423795477      0.90331468294561      0.13111768122656
  C   5.73756038865957     -0.31359267561559      0.15391416840382
  C   5.03853049827825     -1.49357682041498      0.07437812267121
  C   3.65624671249269     -1.47606713144097     -0.05679231313148
  O   3.10508787056027     -2.70859520970580     -0.14095520586416
  C   4.13319329981541     -3.66024270598529      0.19495070165091
  C   5.47825621070108     -2.93421201095346      0.02793046763957
  H   1.92156674348065      2.13871426837504     -0.35974986074040
  H   3.43095714524404      2.87131387689873     -0.89195664663718
  H   2.82679516187600      2.32331251368664      2.03735314448422
  H   2.35472145595608      3.82418561436098      1.24202990937792
  H   3.48576340693270      5.19243812177180      2.36097983600226
  H   6.32427273506186      4.73797855274103      2.65205719135289
  H   6.31478559106504      3.92072359965466      0.77089772100894
  H   6.81615888955411     -0.28791344598210      0.23742073830602
  H   4.01047062715966     -4.51985939065929     -0.45863823975883
  H   3.97450586743849     -3.96712116036106      1.23066475419495
  H   5.94373690852275     -3.16122307645160     -0.93348347460016
  H   6.18340103965420     -3.19593375987739      0.81511236664306
