30
Coordinates from ORCA-job 6479optt
  Br  2.61646162224033     -1.32458443271837     -0.93956048503154
  C   4.25128675327747     -0.53600977936591     -0.38413607822649
  C   4.31748224597712      0.82993156143079     -0.08275097483237
  C   3.05013005076738      1.65072061657744     -0.12655353950140
  C   3.14641192866091      3.02746969375979      0.50423275260833
  N   3.99500633956984      3.90589366462171     -0.27987623192181
  C   5.23081056656506      3.70815778980990     -0.19264389018975
  N   5.86398106778436      2.67548715073347      0.54237179867553
  C   7.00891926466740      3.04241997601259      1.26524708761885
  N   7.35013268587460      4.21689054649546      1.58347269734489
  C   5.59605456066821      1.30207315580633      0.27922426059998
  N   6.66492857341875      0.51738271071267      0.39295693963546
  C   6.53346256781271     -0.76799380866563      0.13621806702156
  C   5.35058161249789     -1.35903732530482     -0.28512533653618
  C   5.53139525417342     -2.83142325259378     -0.50917097978779
  C   7.06928192105317     -2.98427069869537     -0.54225192572720
  C   7.62723266533458     -1.79383443917148      0.26006578766952
  H   2.26613707125834      1.08699066129300      0.38292625043089
  H   2.72078825605766      1.75854106129536     -1.16384329337415
  H   3.53125787154254      2.94080516900107      1.52657282207227
  H   2.15200492929749      3.46763198187422      0.55030629404559
  H   5.92809164306638      4.37315537993048     -0.70050878025262
  H   7.61723307125543      2.19796189351145      1.56136671639485
  H   6.68542642887813      4.92887357719035      1.28324062914497
  H   5.05063214046790     -3.18102373448907     -1.42266793625836
  H   5.08589883918510     -3.38970042472455      0.31980647158100
  H   7.40817985705134     -2.90717481420546     -1.57609710135117
  H   7.40069834375832     -3.94632370784989     -0.15712837110856
  H   7.76097432047913     -2.04637102045557      1.31609382861915
  H   8.58211754735897     -1.42363915181622     -0.10978747936343
