27
Coordinates from ORCA-job 6485optt
  Br  0.93512733091000     -0.15078818041381     -0.42104130309022
  C   2.79283882718927     -0.24158671091043     -0.14886771179707
  C   3.46830498041345     -1.39698900647793      0.01054307110263
  C   3.04309590783244     -2.83530071322454      0.02701547590619
  C   2.36945679961168     -3.19242162133986      1.35305502439021
  N   1.89410586201444     -4.55657925624251      1.32356996912945
  C   1.27123446138706     -5.12284045718034      2.39977984061873
  N   1.09774338197169     -4.65945886254803      3.56752776878722
  C   0.76789899849341     -6.46556989224295      2.10971246018857
  N   0.38488185415748     -7.50527677353965      1.82208332399483
  C   4.38956022858864     -3.57568072111993     -0.17358413832372
  C   5.47282435554093     -2.63402564486757      0.38131917677819
  C   4.87964850732213     -1.25951827502572      0.20959408696150
  N   5.55404839790463     -0.15848140331824      0.24487726715495
  C   4.87001588410575      1.03345198025233      0.07787070736961
  O   5.36344623007359      2.12947794133655      0.08630798348142
  N   3.46610140021612      0.92605332330018     -0.12222051703586
  H   2.34033401117606     -3.05044368673992     -0.78316863508512
  H   1.54264683286046     -2.49983280708453      1.54885458421898
  H   3.09412614648235     -3.07904413747176      2.16742127534883
  H   1.78666243447517     -5.01002129953191      0.43014532667021
  H   1.46806404106665     -3.71636277859121      3.66619097269685
  H   4.55647041530606     -3.73212621691484     -1.23941102634946
  H   4.38986520924291     -4.55145364711560      0.31078600777534
  H   6.43573321269034     -2.72007297445771     -0.11779132443348
  H   5.64591475553705     -2.79896837804521      1.44848357260364
  H   2.98384953343021      1.80486019951512     -0.24805323906243
