29
Coordinates from ORCA-job 6486optt
  Br  1.09955321521807      0.33900249794965     -0.69357248158132
  C   2.97697105576278      0.16543287992425     -0.48852458758508
  C   3.60603952051528     -1.06626787828382     -0.63863318932729
  C   2.88338230990648     -2.32303311400120     -1.01878064417920
  C   2.38514246260350     -3.11812013423812      0.20636216183283
  N   3.21859729912737     -3.02170073436771      1.39183567081895
  C   4.56468836974242     -3.25449893613036      1.49895732812460
  N   5.24507472262499     -3.24998011639255      2.57481029568397
  C   5.31432952420019     -3.51305374312665      0.20843167489007
  N   5.76942047680801     -2.26949251325763     -0.40795940172873
  C   6.64427925149301     -2.45484551313174     -1.53831302008429
  C   5.97408025936919     -3.10769298527266     -2.69051233839737
  N   5.40848404533147     -3.63061179756455     -3.53966219866887
  C   4.98156969651173     -1.08920621973462     -0.38143603002378
  C   5.62610852963693      0.10473703461815     -0.06225757943621
  N   5.01629588212345      1.27774759564509      0.01133456768842
  C   3.70441876170731      1.30636243242359     -0.18446222345966
  H   3.53887467637366     -2.93213939581514     -1.63564651857621
  H   2.01898357014757     -2.08115613349496     -1.63555768983921
  H   2.23295235006210     -4.15966083261537     -0.09181836537575
  H   1.41287174377022     -2.72271167505825      0.49799748082958
  H   2.74466159784910     -2.81201368668345      2.25438500040721
  H   4.66743545373655     -3.05746084752915      3.39291295557338
  H   4.72027181792404     -4.13556750744546     -0.47218711052636
  H   6.20432322239074     -4.07805990495536      0.48431234588319
  H   7.49348916118726     -3.08012603281108     -1.25287169961862
  H   7.03250085179730     -1.49283507099976     -1.87104566878893
  H   6.68984459951270      0.08408575188235      0.15209731744792
  H   3.20635557256652      2.26386658046653     -0.09019605198324
