26
Coordinates from ORCA-job 6488optt
  Br  3.28908905983432     -1.61606335534892      2.75940814368451
  C   3.57551972042992     -0.68785494888078      1.14995921008583
  C   3.06805530802807      0.54307346396841      0.93851384168730
  C   2.24870828934693      1.39207402216481      1.80980479520851
  C   1.17888557194498      1.91832673018037      1.17259289378441
  N   0.48099200024094      1.17846932993420      0.23783632298593
  C   -0.30365930545487      1.64649533656497     -0.79217749820681
  N   -0.38599838444582      2.87182436076878     -1.09385936736111
  C   1.36704962101863      3.36304596306570      0.93058417826882
  N   1.03326181763532      4.33347220520936      1.65883358639120
  C   2.35431108867833      3.43018064100221     -0.22141319765726
  N   3.14451645099314      2.54761041202320     -0.67908307581617
  C   3.41442531353854      1.19481999307264     -0.33595771840548
  C   4.13292687856512      0.51714849351457     -1.26315264883884
  C   4.59136387675151     -0.84504169987733     -1.05441518605536
  N   5.23194461931318     -1.60722602979544     -1.85323094128503
  N   4.31238521942908     -1.34641540637620      0.22012784126117
  H   2.73761947223942      2.00140111458212      2.55992980001794
  H   0.58215664366689      0.17783671654433      0.31550970197678
  H   -0.82913345210746      0.83828749011626     -1.30320172985260
  H   -1.03400034343066      3.01707377168429     -1.86064080598191
  H   1.44967414888382      5.20165527308785      1.31639857596845
  H   2.41133990821708      4.41668988131683     -0.68824396694578
  H   4.41525477884924      1.01314249745902     -2.18134369381731
  H   5.39452006406924     -1.14266716410286     -2.74079066805255
  H   4.66479163376510     -2.27335909187841      0.41201160695536
