24
Coordinates from ORCA-job 6489optt
  Br  3.81627640501549      0.09330987105222      1.90415448330434
  C   2.97300606309991      0.46236615346367      0.26829285856280
  C   2.12817230545548      1.49552953573404      0.12104523954941
  C   1.56483887868384      2.39658893978893      1.10945125652945
  C   0.75584612551331      2.09024130784321      2.15089722833084
  N   -0.34977353547041      2.95624394110683      2.27600612057991
  C   -0.87293035337473      2.98428745149910      1.10512527756849
  N   -1.61751144975195      3.93243053045508      0.46176701400184
  C   -1.23789270996410      4.07973170616363     -0.92120136335060
  N   -1.95168913266180      4.61742353441345     -1.80148619646326
  C   0.23321590740844      3.74071951849654     -1.23836902112328
  N   1.09250020550176      4.67496422795935     -1.23524658399275
  N   0.57735330407475      2.45905183742714     -1.59709477988434
  C   1.47432908276045      1.64828357637048     -1.21463103773936
  O   1.77766760041077      0.70501478947757     -2.15286754245935
  N   2.64407741657571     -0.33429166262157     -1.96522334445857
  C   3.21918487067994     -0.43125833382970     -0.82982983392511
  H   1.43429936389178      3.39492477514961      0.72110514659995
  H   0.82439202657607      1.20443215234973      2.77282136067591
  H   -0.67831476044868      2.17240151081067      0.41010195579951
  H   -1.86861301969053      4.78165816187013      0.95211705708108
  H   -2.87503679991220      4.86170932899147     -1.44168036057758
  H   0.65493872152491      5.57807694200832     -1.06475890595419
  H   3.90566348410177     -1.26183979597993     -0.73149602865513
