29
Coordinates from ORCA-job 6495optt
  Br  1.16982788536394     -0.44759475852155     -0.92919509757755
  C   2.96420235761768     -0.39889326229362     -0.34841220958502
  C   3.62903201767328     -1.47241439539242      0.14565113536736
  C   3.02429591123381     -2.83017625058576      0.33788270780181
  C   3.50273075592633     -3.89097662422393     -0.67404411706888
  N   2.62128075301527     -5.04181252852969     -0.67282773632099
  C   1.36169223149542     -4.95043373483488     -1.22451552870038
  N   0.34112603455635     -5.66041900643385     -0.98821082425140
  C   4.94891101980214     -4.37704304861076     -0.51326751000526
  N   5.33516865223750     -5.54205821994679     -0.83613924377504
  N   5.91382838585062     -3.46623757618421     -0.12125437595259
  C   5.78949579891771     -2.46328353913460      0.92996006555740
  C   5.01059785749236     -1.25731306723594      0.47780030303111
  C   5.60109344168391     -0.04560320394057      0.36805898637396
  C   4.87679606963016      1.11161252803405     -0.11360715303450
  O   5.30200238631134      2.24050398473160     -0.23864756052731
  N   3.55462737024781      0.81725515419780     -0.47259807395036
  H   1.94258588259947     -2.76484178222894      0.23566223402820
  H   3.21407159341673     -3.18867818849865      1.35385640921902
  H   3.44475089375982     -3.43974107829257     -1.67078688386853
  H   2.70553239902110     -5.64946982334472      0.13226708287404
  H   1.28835927341937     -4.16838315615985     -1.98269149440614
  H   0.51596951711702     -6.35443233956097     -0.26026170627119
  H   4.57046147471242     -6.08441303750977     -1.22813850732261
  H   6.81819887578235     -3.91685449805225     -0.14382550981773
  H   6.80012386109953     -2.15363731230763      1.18630828502750
  H   5.34134315186744     -2.87672966467185      1.84088292242097
  H   6.64167910602053      0.11033980824767      0.61712263910651
  H   3.02721504212852      1.59672862128473     -0.84202923837241
