29
Coordinates from ORCA-job 6496optt
  Br  1.82383248186180      0.60643154669894     -2.87634916885051
  C   2.81708110800974      0.54505046263223     -1.27714105976516
  C   3.55634782553316      1.60041730632713     -0.85877496135737
  C   3.37557833925347      3.00172848462900     -1.33851934884523
  C   2.33947469072363      3.66421949063513     -0.38075563362205
  N   0.98783357625171      3.15407170123565     -0.43976489890224
  C   0.26280749087455      2.26974048613641      0.33148240111700
  N   -0.94585048892087      2.04343517876319     -0.00065570945923
  C   0.92126371126555      1.59516100209311      1.52007246916101
  N   1.59851826417608      2.19060612514126      2.41995874874239
  N   0.71838807461507      0.22916436986519      1.56691446374119
  C   1.83452867271578     -0.63461021591596      2.01373188431115
  C   2.91843794931892     -0.33106341028305      1.00891903115933
  C   3.83541457730820      0.61573634915471      1.28481443267754
  N   4.26062557180833      1.48217401875439      0.31534565353313
  C   2.51843628596270     -0.57850764146552     -0.38404760949712
  O   1.80164064282879     -1.51209844701388     -0.70029308392096
  H   3.02627164814653      3.02916089580624     -2.36675391801951
  H   4.30619436925157      3.57169582897710     -1.27394167375674
  H   2.30167354680770      4.72849830467240     -0.62124602113405
  H   2.71991899951614      3.58027270107100      0.63486561817845
  H   0.42496998196013      3.48357891961382     -1.21172266030032
  H   -1.39390787290516      1.39760443409144      0.64220785937375
  H   1.58458503581827      3.19506816044458      2.27379000245609
  H   0.29014894458709     -0.13922223569474      0.72619753431545
  H   2.12441873939933     -0.35909304803014      3.02446792644528
  H   1.48670076950029     -1.66284335724655      1.98781237755253
  H   4.16711729071046      0.83531492191467      2.29014389539239
  H   4.84154977362098      2.25630766699223      0.59324144927380
