24
Coordinates from ORCA-job 6499optt
  Br  2.62986950275752     -1.24424320912173     -1.21712658345791
  C   2.94457563206601      0.29909231999642     -0.19411684046398
  C   2.61078701965584      1.54580690991243     -0.59288389568978
  C   1.95960789913250      1.97216688981497     -1.86153861645804
  C   0.54013363617985      2.54757665329650     -1.65720628597216
  N   0.55157855821999      3.91985757264519     -1.18734825586737
  C   0.62918346252645      4.36791037068648     -0.01719155607259
  N   0.68415356471222      3.75253187045583      1.24787215686566
  C   0.53738379220206      2.39492181736551      1.48417932327448
  N   -0.45062848450334      1.66808402457975      1.25070159813398
  O   1.61499225526044      1.77438583496950      2.11252758146487
  C   2.84434626282929      1.90712671894073      1.60585944833376
  O   3.68018127214776      0.99036416125460      2.11270599373629
  C   3.75366842590897     -0.00271026753534      1.07920980010842
  O   4.38024765637938     -0.97394230974966      1.28128645388414
  C   3.13172265119436      2.52378296232354      0.42000182669658
  Br  4.96154017968514      3.00766505381668      0.11447091140439
  H   1.89286382969767      1.13426049994317     -2.55363949799928
  H   2.58064012978185      2.75143880765138     -2.31272360560789
  H   -0.03991304212833      1.85977832425972     -1.04143987802102
  H   0.07756117404293      2.57427299868818     -2.64359513324804
  H   0.68193019726010      5.44909134249397      0.10432628343627
  H   1.28332465434295      4.24152071092147      1.89944926546203
  H   -1.22475022935162      2.22725994239068      0.89621950605717
