25
Coordinates from ORCA-job 6500optt
  Br  1.02559574666922     -0.16662296640061     -0.24631736531628
  C   2.91608509801666     -0.11974206073968     -0.09229970020444
  C   3.59634055084945      1.10837227141468     -0.09133797033511
  C   2.89729459331189      2.43645458537189     -0.16982142755049
  C   3.69549003578632      3.48229960232267      0.58892018992523
  N   5.08655665538120      3.54063542432045      0.18423218817777
  C   5.66480682780658      2.44969125327524     -0.10195993416586
  N   6.99415149678073      2.45492542588753     -0.51043783437924
  C   7.70805881381168      3.59152133729254     -0.80280311628082
  O   8.87998691114868      3.56712212047340     -1.08079900526897
  C   4.99076395393999      1.11459979025848     -0.04705565029678
  C   5.67597237259713     -0.11099244435704      0.02895899598321
  N   7.04785774634607     -0.27931436593258      0.08572047824443
  C   7.35472802158117     -1.52412453651560      0.16434106560599
  S   6.04016211746653     -2.64770043625983      0.18008485939514
  C   4.95130602032153     -1.31277052195756      0.06225540233029
  C   3.56525236194878     -1.33273536294803     -0.00536079503016
  H   1.89018792794920      2.36445089309709      0.23609050606118
  H   2.80266966214844      2.72906390857997     -1.22139953142462
  H   3.65503084012108      3.26964106505594      1.66427835551644
  H   3.25663229915312      4.46869055785912      0.44509031854289
  H   7.50019625596713      1.57647169886337     -0.51272185252831
  H   7.10344806873414      4.50430191325751     -0.77053240584866
  H   8.37442496652065     -1.88006850292008      0.21684643971590
  H   3.00700065564255     -2.25817064929886      0.00302778913131
