24
Coordinates from ORCA-job 6507optt
  Br  1.10759348906788      0.43190873650007      0.26817398821281
  C   2.95926486999253      0.11960590036291      0.18946230378791
  C   3.45133019971407     -1.12201016948182     -0.04455959561347
  C   2.90354889372669     -2.41285913813281     -0.27279006816147
  C   3.97757628394865     -3.26533730483899     -0.43766344765085
  N   3.95906911824051     -4.62599441352329     -0.66646092551331
  C   2.92995985004345     -5.37459912987755     -1.17394415493316
  N   1.80302274732099     -5.02730069850880     -1.63756356593293
  C   3.27805715353658     -6.85318024556354     -1.18352831064676
  O   4.34785146107257     -7.23938996866668     -0.78424252829647
  C   2.27238677812934     -7.75455099642955     -1.70972797836708
  C   1.47471114126491     -8.53665460499369     -2.13961269342568
  C   5.23575143945483     -2.56039485767371     -0.31861609149201
  C   4.90702507093021     -1.26760995559885     -0.08233609927321
  O   5.72297400387585     -0.21439497431001      0.09182092836958
  C   5.18571533021482      0.99176025641500      0.31434343281615
  C   3.85606130047249      1.21183416648772      0.37446798563620
  H   1.85489914436574     -2.64757100015796     -0.22878913554086
  H   4.80481072662322     -5.15040901641877     -0.48733171680063
  H   1.68076548864890     -4.01836569367101     -1.64635794113245
  H   0.75924370356522     -9.22569925059778     -2.52253495596456
  H   6.21895591993599     -2.99012879668817     -0.41938151443974
  H   5.93916259723119      1.75416069727315      0.43930239070611
  H   3.49026328862325      2.21018045809419      0.55686969365591
