22
Coordinates from ORCA-job 6514optt
  Br  1.20340147503103     -1.21921551631804      2.15875738946518
  C   2.65477896498335     -0.71878204486051      1.08172190289293
  C   3.55729707772407     -1.65904175465614      0.60969668783011
  C   2.90782111965727     -2.94398650169009      0.22998727778673
  C   2.37237598589264     -2.74860013812932     -0.98384029623657
  N   1.24165042276286     -3.36387582256326     -1.49118197995172
  C   0.15638101502702     -2.71508787450225     -1.58805494198421
  N   -0.28234614110971     -1.43584925543514     -1.23892100858353
  C   0.14346906991887     -0.22261617392071     -0.58969975852359
  O   -0.72962967352195      0.41732469921942     -0.07022846910555
  N   1.42524612935889      0.22865592156638     -0.79661248001810
  C   2.44890664577878      0.16858373820774     -0.03350983928975
  N   3.65157367198552      0.71677017992942     -0.51198624132723
  C   4.76078614400666     -0.06271530834155     -0.45669429089246
  N   4.71855796511864     -1.26143154358898      0.00772162133982
  C   -0.95785578548038     -3.45820742711649     -2.17854077821428
  N   -1.85166229068354     -4.00355850713174     -2.64170334125793
  H   2.51876003498338     -3.66017979911961      0.93764827797767
  H   2.77914425382936     -1.96930290411234     -1.62571892844785
  H   -1.29411721185985     -1.38643001437990     -1.25874073714620
  H   3.57526389090563      1.44534736810615     -1.20891874794465
  H   5.68119723569140      0.35119867883698     -0.85018131836881
