26
Coordinates from ORCA-job 6516optt
  Br  1.21061313255346      0.65398226387050     -2.89928377688533
  C   2.20209894797949      0.87149056267318     -1.33148601057259
  C   3.19697354294523      1.73789687275777     -1.13515220865808
  C   3.46900250477279      2.98107174298836     -1.91186040091516
  C   2.70087520801133      4.11852181955359     -1.18940270952596
  N   1.29199327786850      4.07465223099375     -1.51953686268362
  C   0.40378455265602      3.48481881314681     -0.84656911740490
  N   0.51468724453425      2.75659698046699      0.34747404931230
  C   -0.53598776798209      1.91656291425073      0.71893704934327
  O   -1.65682545914301      2.07026567662469      0.29248183109698
  N   -0.25674820558471      0.88349373329556      1.58710631892034
  C   1.00101204968647      0.24979024831817      1.95123915488011
  C   2.07283584032408      0.48154495313308      0.92494115129043
  O   1.72028253314670      0.08888561200275     -0.32200024572871
  N   3.12889386561597      1.11648725461446      1.20836976875292
  C   3.93442426133500      1.57235136694853      0.14312790410484
  O   5.08094906075881      1.89018211753450      0.29651613034935
  H   3.12017748881839      2.91127592469073     -2.94066142869797
  H   4.53658661195175      3.19556774955249     -1.90060235890820
  H   3.08641945337730      5.07396716681573     -1.54508923145405
  H   2.91407550080828      4.06958502950286     -0.11230136850043
  H   -0.61914840297756      3.48147042704071     -1.20848989192532
  H   1.39265282152829      2.73098804617188      0.84235313989075
  H   -1.08956500805985      0.33909581601747      1.74629249654172
  H   1.39673120680659      0.62114388493675      2.89656454812794
  H   0.81520573826851     -0.82068920790208      2.05103206924938
