22
Coordinates from ORCA-job 6518optt
  Br  2.10703185669044     -0.83234565432893     -2.40961729607205
  C   3.09206041830255      0.14905039250626     -1.15044716928018
  C   3.26834101858611      1.49480085146014     -1.21719436343742
  C   2.30052271697097      2.51256334399288     -1.62620836323235
  C   1.05088766461912      2.32182625987964     -1.21590000862257
  N   0.12593291786616      3.35478621269212     -0.89175392375616
  C   -0.06543765620253      3.49985474071463      0.45977756644868
  N   0.76243786808533      3.21040722831081      1.38134717597034
  C   2.11679338929139      3.03385389613714      1.20739265529726
  O   2.90647775466513      3.91647916818476      1.08424826497814
  O   2.48889786080372      1.69156844985966      1.33743586627121
  C   3.76748621152826      1.33087938480278      0.96740490865815
  C   3.97467670425867     -0.14512900557637      1.06324664430354
  N   4.30382329345559     -0.96448582250472      1.93545536263228
  O   3.63944819013420     -0.67609594523717     -0.21382196054880
  C   4.29551906359742      1.81728848866416     -0.18445652378288
  Br  6.10607050473017      1.46897633424095     -0.56462925169751
  H   -0.69233100666354      3.48582473386047     -1.46803582348331
  H   4.53142898297233     -0.48738910025810      2.80434897841026
  H   -1.04235065217087      3.88242519709240      0.74653907590909
  H   2.66032269862538      3.49451050190346     -1.90680466785796
  H   0.76496019985399      1.34735034360299     -0.82932714710780
