23
Coordinates from ORCA-job 6519optt
  Br  3.15087101569471     -1.79186648821201      2.04824810607405
  C   3.76656856862311     -0.71269391335617      0.64894999752235
  C   3.35674982306501      0.56008266403061      0.49499611073924
  C   2.48316278446458      1.33361952140818      1.38676881127201
  C   1.46251391947185      2.00267246237830      0.82292227205316
  N   0.83577500323608      1.61345024661682     -0.33070071273505
  C   -0.22653366656363      2.25741581388155     -0.96881243769779
  N   -0.91551275623872      3.24030560461741     -0.59026076267317
  C   1.59827751182229      3.46293045320717      1.08289048120928
  O   1.15538707641744      4.18708056293384      1.90878382573613
  S   2.83576121187933      4.07285181343918     -0.13179449633014
  C   3.69857030242415      2.72161203129647     -0.80460947556788
  C   3.90545059538078      1.38602650925552     -0.59164364869416
  N   4.79759789481155      0.83052674353949     -1.51681385222616
  C   5.16074750068524     -0.38260858678296     -1.38448503342257
  C   4.72806392606777     -1.30343376502614     -0.29758770219644
  O   5.14489539311821     -2.43472114862832     -0.23077502844637
  H   2.92500275711239      1.72894517469213      2.29489386423904
  H   1.12479168733422      0.72815353255120     -0.72360050771726
  H   -0.44603153890503      1.79271180963361     -1.92816224326058
  H   -0.68068847691404      3.59855898297274      0.33314048839643
  H   4.27290698005972      3.09714488380651     -1.64670460287851
  H   5.85567248695294     -0.80876490825515     -2.10364345339562
