25
Coordinates from ORCA-job 6520optt
  Br  1.11796379716050     -0.04918862392464      0.00096898729335
  C   3.00270584057075      0.00151916911374     -0.00345651234458
  C   3.71369250421579     -1.16008584858101     -0.00510604759621
  C   3.09869679080062     -2.46782352297252     -0.00505423288618
  C   3.84945674148479     -3.56702613333209     -0.00659240268099
  N   5.22266318493315     -3.48247897941443     -0.00724458480774
  C   5.92562490773595     -2.30128574782393     -0.00293139553128
  N   7.19510178630565     -2.21614456745462      0.00464004611458
  N   5.13250558968669     -1.14138992065421     -0.00828694089224
  C   5.72390568474015      0.10916858540928     -0.00847487507143
  C   5.01293187127668      1.26528506241809     -0.00754397952539
  N   5.94341605340134      2.29790913318985     -0.02173340052537
  C   7.23559843636488      1.79607279151372     -0.01322171345250
  N   8.37636428210340      2.35872840443032     -0.00380073948224
  N   7.05743232932900      0.41925679428352     -0.01774986889139
  C   3.58344043380713      1.34583274595241     -0.00843992514744
  N   2.85475098511766      2.40073816946705     -0.01324040484112
  H   2.02542089155734     -2.53491205880127     -0.00485560285352
  H   3.44052722776446     -4.56607262208730     -0.00776389413679
  H   5.77411137502309     -4.32290378241211     -0.00179111359934
  H   7.64016260312993     -3.12656435308761      0.00679878900282
  H   5.72885740226733      3.27703881432317      0.02845567542859
  H   8.30082776387749      3.36970828887898     -0.00494505864721
  H   7.79589772718959     -0.26623681277605     -0.00914140864831
  H   3.42294379015656      3.24485501434166     -0.02048939627807
