24
Coordinates from ORCA-job 6521optt
  Br  0.60825719202033      1.57276100374325     -1.08001453778036
  C   2.33861583892564      0.97134006967525     -0.63659646921090
  C   2.57224443042176     -0.35805520159880     -0.56006489803935
  C   1.70965509376423     -1.51849505975354     -0.76838928600394
  C   1.58758608509843     -2.28364715501642      0.32564641304587
  N   2.25411140912907     -3.49984875005979      0.19272302183594
  C   3.59849693424796     -3.27001702201891     -0.10014646546631
  N   4.26707222107472     -2.20048525062222     -0.30540286118261
  N   3.85916201773381     -0.86494519106862     -0.25907713709538
  C   4.90476657600397      0.01377141301607     -0.06525655453258
  N   6.13189078371953     -0.31588559537036      0.20704113166376
  C   6.84053921780239      0.88458637312826      0.34921611362780
  N   8.06671378789250      1.05220641122408      0.59959619199860
  C   5.90312918739016      2.06438002285620      0.15568028218923
  N   6.15144032820622      3.29671382186643      0.22375617368338
  C   4.60687718873710      1.42872656619702     -0.12684993123474
  C   3.38299694233595      1.91553589180675     -0.39847974803709
  H   1.87103418717040     -2.03881276769759     -1.70894076014252
  H   1.40238872444418     -1.88663898796615      1.31987463389086
  H   2.03516584051673     -4.32617842139323      0.73048795752325
  H   4.19666318551923     -4.17459188580652     -0.15873043648732
  H   8.53489066320230      0.15143649663171      0.69426999601310
  H   7.14665453805231      3.41763350395659      0.43824866445927
  H   3.19364762659107      2.98050971427057     -0.44159149471799
