22
Coordinates from ORCA-job 6523optt
  Br  1.68658338759882      0.08953814902592      1.12653302059120
  C   3.31646727565265      0.07433595288134      0.21491852869405
  C   3.94586060544500      1.13361404158688     -0.32499122883593
  C   5.33378656736063      0.95682988948899     -0.72915806659085
  C   5.85913665460798      1.97818932428644     -1.48202020584800
  N   6.68778196188148      2.78188767859474     -0.77507152649561
  C   6.09351176155061      3.13292462238925      0.48987806062239
  N   6.85427717593153      3.38455469779475      1.46323357926894
  N   4.69985492525739      3.32689642696180      0.47121027343055
  C   3.74453625156524      2.56091656993997      0.07957864808001
  C   2.42389028554068      3.13112903709647      0.03974738442496
  C   1.33141727142836      3.61430049148962     -0.04273591485511
  C   6.08087175021507      0.04601357083491      0.14559409096202
  N   7.22335125439876      0.07201582437469      0.68307256863792
  C   5.29167468704779     -1.25209069348535      0.31923028370148
  O   5.73814965947048     -2.32606365350231      0.49674927160151
  O   3.88911291368443     -1.14009710171234      0.21814747698758
  H   5.40275288138450      2.33089264731892     -2.40544856069231
  H   7.33530704580564      3.44588383180939     -1.17685110287044
  H   6.31787957591857      3.71923833428148      2.26074098979277
  H   0.35974564088828      4.04421611444870     -0.10868173730429
  H   7.68305046736604      0.97487424409572      0.55132416669715
