27
Coordinates from ORCA-job 6529optt
  Br  1.50250830699615     -0.02813175396426      0.12971106730940
  C   3.32668485866065      0.30323725924942     -0.09009268178095
  C   3.83947907895661      1.53891189254684     -0.12561258447307
  C   3.21687179611649      2.89437278768097     -0.01844512149707
  C   4.42869070810529      3.78406570934756      0.28904169911292
  N   5.56092012942161      3.06308744027392     -0.30592253798162
  C   6.85098070566706      3.62500947837989     -0.22760466056882
  N   7.17939331291947      4.58235662711432      0.54245279522638
  N   7.77266857334197      3.08185038174092     -1.08788119297522
  C   7.41432674712128      2.71411502917520     -2.45164549255417
  C   8.61568386485230      2.38350134955981     -3.21320759247840
  C   9.60355401145922      2.12176542446012     -3.83532979684218
  C   5.26042465327261      1.69712088606928     -0.30683806378137
  N   6.09187681622019      0.72953191182753     -0.43661696400425
  N   5.53586489632380     -0.50216501865480     -0.40240198774487
  C   4.21859957851814     -0.86143293380644     -0.22851147535251
  O   3.87025803775601     -2.02127258722878     -0.19931194731450
  H   2.44476628499839      2.94317254835986      0.74661205461043
  H   2.76242640514267      3.16168859394797     -0.97555956265416
  H   4.55658641886596      3.87473532138358      1.37307047252475
  H   4.35713071666536      4.78137038405741     -0.13905600156455
  H   6.46176534343455      4.80446018118886      1.22276789099781
  H   8.66646209794256      3.54303953594507     -0.99512954601511
  H   6.88340364387119      3.52455355278832     -2.96333920625337
  H   6.76292579172773      1.83995021565173     -2.43682968445525
  H   10.47919402758867      1.88431775793818     -4.39083890581357
  H   6.19255319405398     -1.26321197503253     -0.49548097367664
