24
Coordinates from ORCA-job 6531optt
  Br  1.10368309767169      0.15096635442943     -0.06018642236784
  C   2.96751258550891      0.01127824454686     -0.19393058012988
  C   3.63625346957020     -1.16602798651475     -0.11148799249849
  C   2.93792531324713     -2.49194974082938      0.10855622277270
  C   2.98510370370292     -2.80490604992564      1.54397009098333
  N   3.06897133709193     -3.04348333675712      2.66126208913895
  C   3.59901219292092     -3.63963828130221     -0.65890646147341
  N   2.98563509670606     -4.61299919119279     -1.18389679663607
  N   4.96186709075445     -3.55018072287282     -0.73082318376021
  C   5.75295214776590     -2.54934895343205     -0.04796323642106
  C   7.11114811845897     -2.46907313842933     -0.72708877879471
  O   8.10052762786069     -2.09937035248266     -0.16765658376108
  C   5.06626725940775     -1.20188277281991     -0.16586982960713
  C   5.73060431704168     -0.03020997717424     -0.29090418857401
  N   5.05073050342933      1.13881325523924     -0.38263496349244
  C   3.66765579866836      1.28511376299414     -0.36524103455719
  O   3.15634518791828      2.37508090494297     -0.47463363087337
  H   1.89480105231995     -2.42632228398407     -0.19562867733164
  H   1.98110609478673     -4.54856300492110     -1.05751616384643
  H   5.41498336998982     -4.39627208214111     -1.04541736410073
  H   5.91984096730606     -2.79316455768353      1.00884048457605
  H   7.11021149835759     -2.74843955214227     -1.79888655941251
  H   6.80905274522736      0.04229761356078     -0.31097296752868
  H   5.55480942428704      2.00928184889167     -0.48298347230413
