26
Coordinates from ORCA-job 6532optt
  Br  1.01939293166693     -0.12202272515517      0.31884398145793
  C   2.89621777114312     -0.22029956015638      0.22268985210101
  C   3.54697358773080     -1.35459912395139     -0.10299121582478
  C   3.08117550901304     -2.65980979459305     -0.43539109414523
  C   4.20063584764059     -3.43579753478202     -0.65241783842563
  N   4.27147071073060     -4.77507012901473     -0.95842943302515
  C   3.24888528394520     -5.56404433498473     -1.49259637810251
  N   2.20068381216657     -5.16538001324331     -2.08751027489579
  N   3.52303493920545     -6.90686776506092     -1.34463609439277
  C   2.56512702276211     -7.86432712690903     -1.82082078109096
  C   2.66316140316390     -9.14056523672766     -1.03837026424262
  O   3.37294789505021     -9.27916145169481     -0.08021344732923
  C   5.40226233824338     -2.65649390118425     -0.47161660353849
  C   5.03162819559339     -1.39222399420445     -0.14039349354435
  N   5.85038312742606     -0.33161671963668      0.10986720508673
  C   5.36579433659226      0.80857816142302      0.41764498293052
  S   3.69623059320801      1.25843291186430      0.59099521787117
  H   2.05040007978140     -2.97005166824685     -0.45142802712876
  H   5.18770604733691     -5.19468859248239     -0.94998608880415
  H   2.20927788872163     -4.16056832020081     -2.22398195589545
  H   3.98735344041144     -7.18802848927321     -0.49040169902084
  H   2.70564183192705     -8.09194514683792     -2.88331822370238
  H   1.53855085108494     -7.48717624741551     -1.73034931735176
  H   2.02008410935903     -9.96442246445524     -1.39451801484849
  H   6.41399577153960     -3.01380990380262     -0.58933739491712
  H   6.03098467455632      1.64395917072587      0.61366640077913
