26
Coordinates from ORCA-job 6534optt
  Br  5.92055238970215      2.42635690537978     -0.04091649057287
  C   4.68728252172560      2.16237565883662      1.35979254596490
  C   4.09115948412859      0.96398246234049      1.61450086194067
  C   4.83379669780775     -0.24362429206911      1.28371340555090
  C   5.35781739708739     -0.79766554232649      2.39234020703627
  N   6.70222314172820     -1.15491117771218      2.55972771041866
  C   7.24685372786227     -0.13930866391338      3.47933753973323
  N   7.22899149161908     -0.26814702217770      4.72897380253310
  N   7.81997218704835      0.93300898850325      2.80910739266460
  C   7.33798893578326      2.10463016935499      2.68361581124997
  N   6.17498410193022      2.60551753162095      3.22473641390574
  C   5.02941422116561      2.71183769378813      2.69987049329342
  O   3.99348501144867      3.06749924896841      3.48058822114590
  C   2.76238155856569      2.50440349098586      3.03715357241173
  C   3.00272954322151      1.03121370825327      2.68396038527702
  C   1.77823372904598      0.41728485651540      2.17749056216105
  C   0.76367308672698     -0.05858290524613      1.75826606083601
  H   5.42217064484782     -0.23114148125799      0.37568876708733
  H   4.83425657789799     -0.74285366771138      3.33785726135489
  H   7.20283701421946     -1.08903484538699      1.67756692789238
  H   6.87388621799970     -1.18877172671194      4.98076448813175
  H   7.95084712734192      2.82930831208379      2.14980544741445
  H   2.38723484592061      3.03760855440483      2.16151944044430
  H   2.06277068093618      2.60558732099667      3.86146341939903
  H   3.31119813111170      0.51213984676294      3.59629778035938
  H   -0.13574046687276     -0.48871342428212      1.38577797236615
