25
Coordinates from ORCA-job 6538optt
  Br  1.17332020307553     -0.27499423706363      0.52475678985773
  C   3.01270321150665     -0.19830844989596      0.25129906497458
  C   3.78905138765127     -1.28233889338187      0.16520954932103
  C   3.56618491970971     -2.69196985139109      0.23613305094181
  C   4.75236910623424     -3.32277660680807      0.03670741071530
  N   4.90206169326639     -4.69058458501017     -0.02757113220286
  C   6.02394511678313     -5.49159320879816      0.23034699946191
  N   7.24663889937603     -5.22435115405162      0.14056531898733
  N   5.62494770660185     -6.80625564391493      0.54449340010113
  C   4.66314548606243     -7.17423317047062      1.47094994164128
  N   3.93016965832119     -6.45699515246069      2.21417876928989
  C   5.82363275204119     -2.29831046851564     -0.18995155753660
  O   7.00648167042418     -2.41484515045661     -0.44730257547560
  N   5.16916688480145     -1.10579008441110     -0.06575753254286
  C   5.67101764305108      0.18157910277235     -0.20496875344541
  C   4.83821496272303      1.20925982555345     -0.09855101231873
  O   3.48505545261608      1.06496614501087      0.14142958201692
  H   2.60577754291332     -3.15010497791950      0.41419017462795
  H   4.02907734941538     -5.19857933066997     -0.01458204290106
  H   7.42073266747905     -4.27683712678086     -0.19231819911027
  H   6.35446213392346     -7.47913734998777      0.36195463900724
  H   4.54398892212912     -8.25600019846904      1.51435547763195
  H   4.15525080227933     -5.46533838397940      2.15261621802248
  H   6.72776691759429      0.28305755001145     -0.39398916685903
  H   5.12383691002056      2.24348140108865     -0.18319441420612
