26
Coordinates from ORCA-job 6541optt
  Br  1.03778495568538      0.18157856956529     -0.01335754505415
  C   2.90333846812139     -0.02415873398742     -0.06317521902272
  C   3.54825946417555     -1.15950350148708      0.23330294568831
  C   2.97654311230834     -2.48983329951388      0.61395622637553
  C   3.22257189218002     -3.55235190695752     -0.45679891453914
  N   4.62231884897110     -3.95187258352517     -0.66849656622696
  C   5.73433157426079     -3.16290708697234     -0.55838807538668
  N   6.82970219928347     -3.22124755317305     -1.18776901069195
  O   5.65866857166077     -2.22886121004562      0.45105094047447
  C   4.97816676583255     -1.08545417076692      0.11230503568670
  C   5.65154192420001     -0.00120994188513     -0.31170490369602
  N   7.03015945876635     -0.09313262411680     -0.55173086119615
  C   7.96219201870389      0.78984397234849     -0.08332705599836
  O   7.71674507072754      1.82200626940787      0.48630724000149
  C   4.88845109406934      1.20281274437562     -0.66636205426860
  N   5.25680543908007      2.29175295870444     -1.15839446997247
  O   3.51153245413242      1.10053488773590     -0.43336711463394
  H   1.89897104579285     -2.40631582683695      0.74316582793556
  H   3.40405565709678     -2.81679423354894      1.56360345192090
  H   2.80173529295098     -3.18824145053532     -1.39985100155213
  H   2.68176453771869     -4.45691724836363     -0.17774392499016
  H   4.71788310597356     -4.65702804448494     -1.38372027694668
  H   6.82600121531216     -3.92528205379533     -1.91950599106186
  H   7.35932666963441     -1.01523293996185     -0.82584559955029
  H   8.98659106192358      0.45452484019798     -0.30497040327252
  H   6.26755810143788      2.34529016762233     -1.22718268002217
