19
Coordinates from ORCA-job 654optt
  C   1.00686506633471      0.19038422141613      0.87207888244815
  C   2.48797795692202      0.10613523370521      0.68162972456998
  C   3.26571337028627      1.14704161372868      0.38687038819930
  C   4.71918295831383      1.11021218140901      0.18795018504787
  C   5.39296247895064     -0.22569260460884      0.31429205943447
  C   5.35502709927596      2.25472553275975     -0.09166095883375
  C   6.81259726849974      2.47663484598453     -0.33836634990559
  H   0.71990163110821     -0.13833478118639      1.87368872860345
  H   0.48234833165439     -0.45716485957015      0.16538720219755
  H   0.64926095778775      1.21033314691692      0.73145900818758
  H   2.93278624379519     -0.87780983522139      0.79684109905682
  H   2.80216442675476      2.12499154227323      0.27673552157942
  H   4.97468041280738     -0.93349061938542     -0.40483872384836
  H   5.22672346144640     -0.64310581925199      1.31017684648203
  H   6.46472681172545     -0.16862019708052      0.14827048487524
  H   4.74158648692657      3.15068423061324     -0.14916471323454
  H   7.40018262263226      1.56309510926639     -0.29281461305730
  H   7.22144217723199      3.17780348730983      0.39347594003943
  H   6.96687023754645      2.92717757092178     -1.32201071184176
