23
Coordinates from ORCA-job 6551optt
  Br  2.76778137868346     -1.12801754619834      2.58141646364796
  C   3.26313132182220     -0.27658129629781      0.98975349062821
  C   2.61482083256481      0.80432670009808      0.52299299431837
  C   1.47805811824947      1.49896378507563      1.14392814599910
  C   0.41417308724843      1.70635125877867      0.37627186197766
  N   -0.50747763837839      2.76554812228314      0.47595022142835
  C   -0.32970464877224      3.74632717945513     -0.52937103049605
  N   -1.03097731412650      4.75048047682068     -0.76942800967203
  O   0.73885580426672      3.44063080587955     -1.35433470694075
  C   1.97050198103268      3.42981805764770     -0.73144081282115
  O   2.26120414881933      4.22039554147460      0.11194463905564
  N   2.80981368006096      2.48163504039910     -1.28233185840861
  C   3.14112575855251      1.40379207863986     -0.71853423928310
  O   4.11513972707674      0.69820475167728     -1.38353196738555
  C   4.76320053721704     -0.38820275396537     -0.88836751879477
  N   5.70148718761895     -0.97068787560905     -1.48013428384498
  N   4.32111030432515     -0.83592464413875      0.34540348676731
  H   1.63581733040673      2.06252506428326      2.05739665337544
  H   0.32902954220419      1.16333236026549     -0.55779382412737
  H   -0.64149415157608      3.16206961911706      1.39590119874464
  H   -1.85146938405782      4.78015461398215     -0.16954740078928
  H   5.92134052463616     -0.51941463564383     -2.36269220056792
  H   4.79653187212547     -1.64372670402426      0.71654869718889
