26
Coordinates from ORCA-job 6559optt
  Br  1.07934812266362      0.22051492676469      0.04903235068479
  C   2.97438297865753      0.12604458604339      0.00531090502396
  C   3.60471721813620     -1.11171081236014      0.08449322997532
  C   2.83683223852922     -2.40513236233022      0.16596866270978
  C   3.66947637718569     -3.55405474911463     -0.37577536638426
  N   4.96722148202189     -3.56038485185905      0.26900432389973
  C   5.70062670234884     -2.43703981730911      0.45613141699425
  O   6.83480470642973     -2.46333388405659      0.89401543604033
  C   5.00252807576298     -1.14958654424715      0.13855495395221
  C   5.74060830749848      0.03077120912134      0.01575276417372
  C   7.24069076012810      0.07235880176172     -0.07461321772957
  O   7.85258109011616      1.07443284681318      0.18112164019327
  C   5.08862274486920      1.24229758197899     -0.11958994912783
  C   3.69821610018262      1.32107110455818     -0.08768033997239
  N   3.04528133920296      2.54448637435537     -0.17305816120221
  C   3.54388183760017      3.75851866502396      0.23281745234359
  O   2.91822204484326      4.78011616318467      0.14701929031858
  H   1.91152594424523     -2.33077498160835     -0.40269570765803
  H   2.56322586471727     -2.59960923091613      1.20769470155979
  H   3.77493620534389     -3.45382640155262     -1.46125415212754
  H   3.17867633751521     -4.50460007381234     -0.17529614834738
  H   5.45432610051519     -4.42670138801488      0.43762759454323
  H   7.74208505240709     -0.83402672393530     -0.43165890145495
  H   5.69126515747180      2.12733157388982     -0.26910859005643
  H   2.06822599251978      2.55134458863856     -0.43483694433582
  H   4.55469121908779      3.70349339898265      0.65902275598389
