23
Coordinates from ORCA-job 6560optt
  Br  1.32828802708025     -0.45571395243402      0.82458595416049
  C   3.14950128985540     -0.17029208327650      0.35295123222608
  C   3.73740438282368      1.08359704443203      0.54397931996037
  C   3.03575466654689      2.28219905324351      1.09928478556575
  C   3.05937614017000      3.46676910848211      0.11885321650797
  N   4.33967495572327      4.14247621695424      0.02435429779123
  C   5.45234366084766      3.57956531932754      0.12194125303024
  O   5.83717992447160      2.28083363465194      0.26374409170948
  C   5.06418879592646      1.15662117375593      0.13755076023381
  C   5.74607132686635      0.06148861900557     -0.37382983984936
  C   5.02293522120723     -1.11158637061517     -0.48596447439938
  O   5.51479653030185     -2.30180809590062     -0.96463181287184
  C   6.74524628734463     -2.47059928604830     -1.48835648593429
  O   7.59535960600082     -1.64818535999342     -1.61432484029200
  N   3.75618999512403     -1.22281565519536     -0.13355629773916
  C   2.60357144707269      3.03776186593370     -1.21291248389631
  N   2.24906562979676      2.66831438564809     -2.23739795323529
  H   3.51925304668765      2.61795266382506      2.01971718142880
  H   2.00447269853853      2.03636859411074      1.33703762026824
  H   2.34556207635309      4.21652661789104      0.46561544766400
  H   6.35502145381410      4.18197775304394      0.10430546687941
  H   6.77656620172846      0.15026140866276     -0.66867350684669
  H   6.83617663571848     -3.51971265550485     -1.78827293236154
