25
Coordinates from ORCA-job 6561optt
  Br  1.19922144295809      0.25186650153776     -0.24392100241286
  C   3.07213669764322      0.00583544706953     -0.16580875728301
  C   3.63165624476917     -1.25594378426070     -0.01435498289517
  C   2.83207002925774     -2.52066118548973      0.09691925918625
  C   3.64026868748006     -3.69149295613686     -0.42897046478961
  N   4.95448705944281     -3.71682707805410      0.19551773056101
  C   5.73911919778876     -2.59857150176770      0.29301176720016
  O   6.91373352715935     -2.65816380158940      0.57461536065096
  C   5.02428050364162     -1.30800816367908      0.06034337887896
  C   5.76812993013016     -0.13846342430071     -0.03680906397422
  N   5.21706514862431      1.05679600012449     -0.20179851213128
  C   3.89280043454744      1.12319017688911     -0.25984369126429
  C   2.93339077306892     -5.01475306057710     -0.15062773971995
  O   1.94139635585899     -5.10868931623657      0.51913206359661
  N   3.54861911705665     -6.10468530399588     -0.74409719431716
  C   3.11473305916485     -7.41827986299920     -0.59022866263540
  O   3.65199024525147     -8.33167324228833     -1.14626333072500
  H   1.89798676199762     -2.44273093877884     -0.45680190672248
  H   2.56685096377273     -2.70561232799974      1.14153231021320
  H   3.73875388944718     -3.59699843891059     -1.52056432870806
  H   5.45510754052214     -4.58933237905336      0.29045639006533
  H   6.84813903378830     -0.19228580632594      0.02733917287593
  H   3.45215799837007      2.10545905165585     -0.38715553509174
  H   4.33087682164570     -5.97007710260144     -1.37152975733116
  H   2.25302853661257     -7.50589750223140      0.08090749677297
