27
Coordinates from ORCA-job 6565optt
  Br  1.65512547625438     -0.54669976119252     -1.26099792718354
  C   3.43994971767174     -0.20336562061737     -0.74954819874655
  C   3.80271599251127      0.94832761458248     -0.05551851256770
  C   5.15217907676704      1.15166477632287      0.25886182315866
  C   5.54304634604049      2.42955486537022      0.95006978197078
  N   5.32055441795464      3.56430382856593      0.05975825791367
  C   4.14350128086039      3.84525424558050     -0.25141728852359
  O   2.98429465418319      3.25503608784179      0.18427623702662
  C   2.78018157524355      1.91965674655689      0.44085506497658
  O   1.78672767123433      1.61186712424860      1.01314175812466
  C   6.09704610993261      0.21094564311605     -0.10799812132037
  C   5.72998998766230     -0.94149148117021     -0.79629265974353
  C   6.79136794829995     -1.96609115431898     -1.15013908410326
  N   6.44842584215759     -2.88345918013796     -2.20721475106484
  C   5.76591603001058     -4.05136592358390     -1.96945289885142
  N   5.19546326388286     -4.82065939123355     -2.79771221861134
  C   4.39777234868879     -1.13587688876163     -1.12716073378826
  H   6.59669404328456      2.40607271420879      1.21818591006146
  H   4.96383065780354      2.55511175890268      1.87252902310243
  H   3.90986347104687      4.69360312877396     -0.88495355768121
  H   7.13879446029848      0.38520655599457      0.13835572899936
  H   7.01844712464183     -2.55721961462062     -0.25891991273751
  H   7.71338812902438     -1.44355262241918     -1.41135823500665
  H   6.39252920910563     -2.50742223435345     -3.14227566904223
  H   5.76107133242888     -4.32543626455703     -0.91254308148369
  H   5.25268751594225     -4.46979392553175     -3.75433881580377
  H   4.08843631706772     -2.01317102756716     -1.67919191907473
