20
Coordinates from ORCA-job 6566optt
  Br  1.25890248078970     -0.20268645374155      0.13834560068125
  C   3.14059161201280     -0.12341131652876      0.10901131237466
  C   3.77600087230324      1.08418790389426      0.07864483589640
  C   3.34181947483194      2.52914614820415      0.05607507505098
  C   2.52997823584602      2.88333216901921     -1.10366842933440
  N   1.91036986649485      3.15837471193486     -2.02677096845497
  C   4.71252422218859      3.32371913696400      0.03954794343015
  O   4.79786027986153      4.51026788115693      0.03784206960819
  C   5.79006558100173      2.29500945851647      0.05217431064548
  C   7.16388326605626      2.30369140650691      0.04434834549193
  Br  8.11913966751408      3.91557274445274     -0.01064536468016
  N   7.89375618182189      1.17272011395274      0.07047594651298
  C   7.29870760879565      0.00136450268772      0.09783716233574
  C   5.89135024898076     -0.15184091852438      0.10017575357416
  C   5.10379877541538     -1.33144543554183      0.12051764206812
  N   3.79493057667111     -1.30373353311960      0.12567029576033
  C   5.17606079775373      1.03838777170450      0.07695296016541
  H   2.79911282257128      2.81413832563131      0.96181521647738
  H   7.94822931080483     -0.86859077811214      0.11745520316072
  H   5.57091811828458     -2.31120383905754      0.13419508923565
