25
Coordinates from ORCA-job 6572optt
  Br  1.21781491055617      0.05492930905705     -0.31984966186969
  C   3.07944236805455     -0.11704203158410     -0.08760196453837
  C   3.68794331855401     -1.26071345072907      0.29850281251580
  C   2.96626407187022     -2.52972298676735      0.62695998586582
  C   3.11272108355200     -3.59416528397458     -0.47118661041554
  N   4.46939346529487     -3.85144774215963     -0.91889565458257
  C   5.69220004968316     -3.57171638536656     -0.36048520982859
  O   6.68510705589762     -4.10451690436189     -0.79258769073414
  C   5.79586297477944     -2.53839798211408      0.75711216814804
  C   5.13307033412824     -1.23526515975170      0.40143170255251
  C   5.82049025827517     -0.09419337414645      0.15723674166843
  Br  7.69730393387126      0.01495921187933      0.28985026047880
  C   5.15846446231007      1.15495745823146     -0.23317621073834
  N   5.64062734974751      2.30200466075452     -0.48299368227997
  N   3.77307324528019      1.01297174675079     -0.34842875740284
  C   2.48318293535315     -4.84746473262657     -0.00246253962946
  N   1.99511208424986     -5.81441056358282      0.37002086015823
  H   1.90083176259247     -2.34791535067235      0.74884193663024
  H   3.31646672049169     -2.93882047205424      1.57468789550797
  H   2.53679316762177     -3.25333263454637     -1.33637406737838
  H   4.55296139547367     -4.53323233784463     -1.66142716992994
  H   6.85819249682183     -2.41264862205766      0.93064749396819
  H   5.35857321266724     -2.95119709383042      1.66818298255008
  H   6.64997796209068      2.31350008328902     -0.38701369885725
  H   3.29012938078306      1.85288063820837     -0.63599192185905
