24
Coordinates from ORCA-job 6573optt
  Br  0.98353746395249     -0.28025338628077     -0.03023441507940
  C   2.82859141534713      0.08871645105948     -0.10237459183339
  C   3.30342807161907      1.32325269158079     -0.30064881823735
  C   2.65476556707972      2.62969868096543     -0.44371582933709
  C   2.68407675517558      3.41580667134140      0.63863296933712
  N   3.47416617869805      4.54776314689471      0.46025567927768
  C   4.77621760220011      4.28436843030576      0.03842330370298
  O   5.57228548234239      5.17971647856955     -0.10686750849167
  C   5.27961008278255      2.85004469538918     -0.12870792093570
  C   4.76744718568561      1.60215412003162     -0.27256069938127
  C   5.72762607502497      0.42940281496466     -0.37451643007444
  N   6.92657785703617      0.47811795531309     -0.78300741547583
  C   5.12167815775531     -0.85401005412186     -0.00749994891231
  C   3.75803281973086     -0.98916734754412      0.09453008960700
  N   3.53577316074636     -2.30763468465138      0.35365571132449
  C   4.76277376237466     -2.90406522290130      0.40092121771575
  N   5.73419144832920     -2.05977720095710      0.18143146997416
  H   2.85560428850720      3.12421666284258     -1.39044385965898
  H   2.48261855622325      3.06534601300614      1.64669550455586
  H   3.33927746405388      5.43835076239909      0.91770866789992
  H   6.36192086168792      2.91609981364905     -0.09483385470653
  H   7.19252672053758      1.41760888219663     -1.07493511134039
  H   2.63561789031322     -2.74294426561022      0.47777003964915
  H   4.87665513279666     -3.95681210844240      0.60332175042023
