25
Coordinates from ORCA-job 6574optt
  Br  1.00246172744519     -0.16193286350388     -0.38893980452936
  C   2.88085128563408     -0.16386124476646     -0.15764390938535
  C   3.56214109873482     -1.31806788797447      0.21152356067726
  C   2.91496669164646     -2.64252897250208      0.48041287519430
  C   3.14530843265376     -3.62933764321524     -0.67069202958759
  N   4.53400930967753     -3.93194204165309     -0.96776707201839
  C   5.72671052738623     -3.53474516822587     -0.41316880952260
  O   6.75653328681450     -4.02881431877167     -0.80495672359231
  C   5.75089791133424     -2.45976493642230      0.66408888615689
  C   4.95707866390280     -1.22986733583918      0.31978168491384
  N   5.63395883893176     -0.10931012044446      0.11534425902906
  C   4.94984716309612      0.98298915116573     -0.21649743226669
  C   5.76572393744217      2.22000437972122     -0.42865866511296
  O   5.29001713514532      3.27850865356610     -0.72898867208186
  C   3.57414838287482      1.01423174025892     -0.37456367758299
  C   2.41999765408885     -4.87959454465198     -0.36556961620275
  N   1.84995459361295     -5.84292391194412     -0.12385526259423
  H   1.83963275472955     -2.53310661503616      0.59823016133660
  H   3.29763054583038     -3.07422755907060      1.40621891847153
  H   2.67749349638887     -3.20569058804485     -1.56599038953242
  H   4.67904927924056     -4.62718826198663     -1.68801550061187
  H   6.79458940468506     -2.18722397729324      0.78607138488913
  H   5.40041852851072     -2.89859426237544      1.60184402161228
  H   6.84906476470039      2.07188995711466     -0.28325272718977
  H   3.08251458549275      1.93409837189517     -0.65895546046975
