25
Coordinates from ORCA-job 6577optt
  Br  1.14191105335448      0.31963220260796     -0.35943368555894
  C   2.99081244246172      0.00289636991236     -0.26291192474420
  C   3.56577398029898     -1.16440276194843     -0.61234129799347
  C   2.82376497423643     -2.35415856869023     -1.13284610023148
  C   2.29552522333653     -3.27648670745753     -0.01771157319535
  N   3.13405947221639     -3.35077306046593      1.17176741231962
  C   4.46725377740700     -3.54623817825642      1.30618620562020
  O   5.02222713856707     -3.51006047776430      2.38015779470266
  C   5.31620587173936     -3.78525120419191      0.04494711440754
  C   5.77620679329934     -2.46369523876970     -0.65199552100373
  C   4.98598214875241     -1.20752116576878     -0.35900732309377
  N   5.67686014569145     -0.20684495421404      0.08237734837364
  C   5.07253347691441      1.00188834234869      0.33084351193675
  O   5.59581187128302      2.01217291923453      0.65480574349638
  O   3.65584600454676      1.04092511829337      0.19626270842573
  C   4.72499568414617     -4.75150161437056     -0.88024504792372
  N   4.27887638904875     -5.51146643536202     -1.61342171066587
  H   3.46642376290865     -2.91101749440612     -1.81224592380713
  H   1.97018185542393     -2.03129011697967     -1.72810366814676
  H   2.11197156480909     -4.26899092781519     -0.43202766223047
  H   1.34225921199954     -2.88116107417333      0.33069764375033
  H   2.68845148860420     -3.17234514758651      2.05963696921254
  H   6.21361074782708     -4.26090377638190      0.43951777694011
  H   5.78040123398399     -2.61810757892048     -1.73353728915121
  H   6.79605368714318     -2.25229846887382     -0.34437150143940
