27
Coordinates from ORCA-job 6584optt
  Br  2.81234721483471     -0.76868059213639     -2.93611149543338
  C   3.66929701832863     -0.02739928286311     -1.44022085691302
  C   3.70853767006929      1.27669675222866     -1.13093552772317
  C   2.60618685642988      2.20435162599711     -1.52994182287768
  C   1.46501205820761      2.06352656345257     -0.43601184684692
  N   1.31345271742089      0.65078519243180     -0.09488624607640
  C   1.76757203462699      0.23581999622582      0.99707986797101
  O   1.84842332018682     -1.09127647134465      1.25752054528845
  C   2.82736121590986     -1.47760286101685      2.21320668767588
  C   4.20557625798262     -1.77478958599312      1.57207567990122
  C   4.52490313188781     -0.67305658552864      0.61453715509114
  O   4.15328869137001     -1.00322457691358     -0.65143362813732
  C   4.88127116420035      0.57958627148585      0.91834147854835
  C   4.60486448889320      1.67425756955908     -0.02093495568078
  O   4.95522496617848      2.82109106118401      0.16061836509214
  C   1.73880443988228      2.95199395035276      0.70194944899200
  C   1.97835104224940      3.66434407706699      1.63437578710314
  H   2.18871172406816      1.92998483862425     -2.49542499986581
  H   2.93868102183835      3.23959758231381     -1.55479067180971
  H   0.53484135959960      2.39196990207141     -0.90156547445845
  H   2.14513314047366      0.87645559653096      1.79950882891155
  H   2.44640398455112     -2.37214017192490      2.70228115478818
  H   2.94172311700771     -0.69081715985744      2.96438725494709
  H   4.17574563897742     -2.72227800179359      1.03607611459978
  H   4.94689921701771     -1.84113790677584      2.36867569787963
  H   5.19913712270559      0.83429586510216      1.92065955877208
  H   2.20824938510185      4.31164635152085      2.44696390026100
