27
Coordinates from ORCA-job 6586optt
  Br  1.18462596235715     -0.19981214349519     -0.49750975379101
  C   3.03147617013697      0.06676473942447     -0.33560303740479
  C   3.59858426418077      1.23271732481796      0.00307385512635
  C   2.92463911134275      2.52477615382990      0.34052186820039
  C   3.73588710567195      3.68202265730881     -0.23363503448845
  N   5.14987191713962      3.62946717053696      0.10273013614466
  C   5.72387697146821      2.51173124682296      0.22112802922512
  O   7.02139668945950      2.39703703009004      0.50919003943483
  C   7.74185761709436      3.62232498761369      0.63214911341721
  C   9.17658013542188      3.25661189613844      0.92890895097018
  C   10.06299200646084      4.46441055858308      1.03868290944512
  O   9.68006804790328      5.59406194651856      0.90687924984992
  C   5.04586963979855      1.19190035102427      0.01173734939121
  N   5.75457638468802      0.14266055696995     -0.19219275006520
  C   5.10909249780082     -1.06198364185711     -0.42843520294041
  N   5.63935722579950     -2.19354520892120     -0.52624165874095
  O   3.72052843475766     -1.03646681209900     -0.60290578770110
  H   2.87238819672877      2.63400907863470      1.42838578909047
  H   1.90450964583019      2.54457334365054     -0.03980998331000
  H   3.34417512584655      4.63000983411634      0.13258352884604
  H   3.64424119383584      3.70107126943908     -1.32416729540293
  H   7.30587683235875      4.23050100272428      1.42549856173209
  H   7.65651129628385      4.19328456870872     -0.29283332572671
  H   9.58285978917097      2.60481850516189      0.14874201160100
  H   9.25567705547438      2.68764599133888      1.86064150779166
  H   11.12788493465648      4.25401816933043      1.25426527512585
  H   6.64459574833230     -2.09361057641148     -0.41578434582055
