25
Coordinates from ORCA-job 6587optt
  Br  6.79810378344425      0.92818779130833      0.03053040685626
  C   5.09063578279090      0.16093465084059     -0.00442369058536
  C   4.82642518418780     -1.17561827492393      0.00692763040727
  C   5.50659515829252     -2.39727896533722      0.04550305679586
  C   4.47229241691362     -3.33120210831776      0.04867851031825
  N   4.55553883955080     -4.70776419363793      0.09540038402120
  C   5.70731898519011     -5.44922359208951      0.12803055115541
  O   6.81058472721293     -4.95500028438537      0.09719161306858
  C   5.48664652134126     -6.95118924701695      0.15603512770032
  C   6.70491857634770     -7.65646374186745      0.71752160961363
  C   6.93278809492947     -7.32568235659777      2.16841019276449
  O   6.18981830365560     -6.64952032565118      2.82383517229940
  N   3.21453391392051     -2.80616799405379      0.00857184423423
  C   3.40403296176964     -1.50352561548959     -0.01673048450766
  N   2.42873103323767     -0.57080424142010     -0.05803703999245
  N   2.74215788609488      0.66227312619232     -0.07075897703838
  N   4.04110420207452      1.00053621205025     -0.04204114296139
  H   6.56221212644692     -2.59105840371044      0.07875053732897
  H   3.66479314286055     -5.17910749011398      0.14380783524419
  H   5.29899534547991     -7.27607230779445     -0.87036009306299
  H   4.59976612553038     -7.18443839274863      0.74653633363886
  H   7.60590822003170     -7.37168985965234      0.16857424000413
  H   6.61486986214164     -8.74329420041420      0.63147015575141
  H   7.84594731055873     -7.75697280292224      2.61961290133921
  H   4.18528149599591      2.00014261775337     -0.05003667439344
