24
Coordinates from ORCA-job 6588optt
  Br  2.70462036331323     -1.91318619256337      2.20322586385178
  C   3.23200657732865     -0.62466058422217      0.96362514263704
  C   2.44537864787959      0.50581300875748      0.65356488593964
  C   1.24250764896805      0.95893951650417      1.06415891952017
  C   0.94788826946958      2.23021127364120      0.33948789684588
  N   0.75729914538117      3.39812238389604      1.17629492576409
  C   0.79352653647695      4.64754877725657      0.61281292901696
  O   0.37732729378668      5.63896595411611      1.17265649642539
  C   1.49866087559796      4.68772340611837     -0.68958355756019
  C   2.24419037916220      3.66246190207816     -1.12083165771979
  N   2.16158818275687      2.43334548936807     -0.47453371777867
  C   3.04232549290588      1.40956783245452     -0.32723998603724
  C   4.27811060308436      1.10629694889377     -0.87770324605024
  C   5.03369696052009      1.84701545512885     -1.90487204783942
  O   4.64339864226925      2.78445068839225     -2.55273483334115
  N   4.97314416415618     -0.01409514718657     -0.50764738081857
  N   4.41439312667494     -0.78158053457069      0.36676749214494
  H   0.56418584796028      0.48229264003109      1.75208071755586
  H   0.10236486971052      2.15355842305964     -0.36145326300049
  H   0.30166822618868      3.30217704014349      2.07081487765309
  H   1.52095908941913      5.63833874008202     -1.19937504765701
  H   2.92840781788608      3.72122734082756     -1.95246250332597
  H   6.04281348222798      1.42794898850715     -2.05424036362330
  H   4.96253775687564     -1.59948335071375      0.61118745739722
