27
Coordinates from ORCA-job 6590optt
  Br  4.53271785986637     -1.83211016590829      2.48108957396811
  C   5.05960137092180     -0.94687711601692      0.89912779835825
  C   5.95817545463894      0.10761189891980      0.94215714952011
  C   6.29517907462611      0.71915883827992     -0.25817694522879
  C   7.20657014904419      1.82047162718397     -0.30383983297149
  N   7.95391554055631      2.69065391313478     -0.33172735939761
  C   5.98407699694638      0.02415026636928     -1.43374796529773
  O   6.72915142941653      0.27294088301985     -2.53088852428531
  C   7.77502332853572     -0.70959636413291     -2.69404628512495
  C   8.84309261612941     -0.65606956870781     -1.60181957308313
  N   8.39240524598607     -1.18724019369565     -0.31265505145332
  C   8.96679218516080     -0.57969768644340      0.88710770580227
  C   8.04259069906145     -0.64007172794988      2.12783070020538
  C   6.88002168113309      0.34611398221834      2.11842971845464
  O   6.74822520225912      1.23552872738584      2.90712588232523
  N   5.10718179503843     -0.95414218118977     -1.47398961344931
  C   4.59143134260967     -1.38785631388213     -0.32957561791512
  H   8.22323699758129     -0.47351958010397     -3.65692207351785
  H   7.31553591544323     -1.70043486188961     -2.74790645998515
  H   9.13483659877022      0.38685883442208     -1.46747395515782
  H   9.72624487185377     -1.18171894393888     -1.98706188663432
  H   8.48301304267775     -2.19402933968785     -0.28423347162151
  H   9.91500545849493     -1.04744064584746      1.17507187441521
  H   9.19714901795583      0.46320704560026      0.66747952880826
  H   8.62464865512185     -0.41891894496075      3.02235935862468
  H   7.63660028426997     -1.65198909150324      2.22019665382646
  H   3.84057718590065     -2.16698329067559     -0.38791132918519
