24
Coordinates from ORCA-job 6591optt
  Br  1.26397285891432      0.56919478003143      0.08588482170469
  C   3.08292577346415      0.08749534495585      0.02798602080145
  C   3.60683871990820     -1.16010349958147     -0.03713391437694
  C   2.94993210913081     -2.46341087778340     -0.11904480195959
  C   1.44988703524417     -2.65959328807571     -0.16022717832223
  N   0.85051192506384     -2.58372026888774      1.15720509372000
  C   0.84343888629410     -3.67152747860071      1.96656884199872
  O   1.28669631963951     -4.75181703330591      1.65244185617057
  C   3.71725312636395     -3.56040690040690     -0.12785078542903
  C   5.17179076535738     -3.52529766816510     -0.06604448554267
  N   5.97413618060140     -4.49118119582187     -0.04289994163483
  O   5.76137835844211     -2.28027459278235     -0.03478371180691
  C   5.07465870977576     -1.13539870283335     -0.01811613296108
  N   5.79791124507047     -0.08338597760676      0.01591604153958
  C   5.20949744600585      1.15304334670549      0.03985596464019
  N   5.75413998786968      2.27944032174824      0.04305380392521
  O   3.80157244533124      1.19058065558145      0.07480057636733
  H   1.25893713520669     -3.66188369007196     -0.53916065993257
  H   0.96338364907456     -1.95026681449786     -0.82212706981591
  H   0.51079185563801     -1.70277625277345      1.50620136181857
  H   0.38038754577660     -3.48018576181465      2.94610841094217
  H   3.25993927604069     -4.54062755009117     -0.15536123011862
  H   5.46993941982943     -5.37362380288669     -0.06857576136851
  H   6.76307922595703      2.15972690696462      0.02430287964043
