30
Coordinates from ORCA-job 6594optt
  Br  2.13789288833116     -1.43755299638762     -2.46155155974160
  C   2.68278305818163     -0.32743019367735     -1.04555983084582
  C   2.76672959951469      1.00001955809867     -1.21398793956867
  C   2.40586604650777      1.80185917183526     -2.41942834868428
  C   0.95666773280759      2.31384058000327     -2.32958463430820
  N   0.71552582369551      3.18230601236815     -1.19272336009884
  C   0.39332223633042      2.67526861471470      0.02598845354027
  O   0.16436309840924      1.49516605792812      0.20308902352713
  C   0.32427217306291      3.65837967358017      1.18012947572152
  C   1.26324478490070      3.21718226501638      2.29152064781762
  O   2.60277114798143      3.48599703681614      1.90287902757675
  C   3.50487839602801      2.41874091931059      2.05309710763548
  C   3.25873039709056      1.32414391199966      1.05479811082279
  O   3.14012859895263      1.82139335127842     -0.19532121267504
  C   3.16145617069011      0.01972881119992      1.31681307610444
  C   2.93102383604128     -0.96042453643565      0.25564270215728
  N   2.89951257437911     -2.22697926171331      0.39330083799613
  H   2.51032677653330      1.19759874145974     -3.31774188161499
  H   3.09142313150785      2.64904507452076     -2.48705340194310
  H   0.27864941714597      1.46595681525117     -2.24059473063523
  H   0.71162786116351      2.85867642514114     -3.24094173870492
  H   1.06067221434002      4.12718561246204     -1.22805819967954
  H   0.56726226155691      4.67757067876054      0.87702486664245
  H   -0.70228165099295      3.64259162687496      1.55116639105384
  H   1.04956334672377      3.76759783729765      3.21086733287981
  H   1.11361240801707      2.14953315523053      2.47474228948231
  H   3.46987031355415      1.99242736328537      3.06072995180550
  H   4.49784522853877      2.84241139566141      1.89142046642778
  H   3.24329200734241     -0.32341767363274      2.33994244383253
  H   3.07496812166447     -2.48681602824810      1.36239463347660
