22
Coordinates from ORCA-job 6595optt
  Br  4.18040165115336     -1.56015222728349     -0.49554401831437
  C   3.46218085650015      0.16749641187347     -0.08284505474535
  C   3.97096149026331      1.27628204940773     -0.89150016044555
  C   3.39078785403584      2.61512335819490     -0.64264954560311
  C   2.13289498718719      2.85769414007706     -1.01204302820194
  N   1.32671088823201      3.79326248764136     -0.37216066434258
  C   -0.04955906110747      3.50747366597806     -0.34919421724752
  O   -0.69008897080782      3.32328698741401     -1.34401081831268
  C   -0.57776241735572      3.31218627733878      1.04267459224262
  C   -0.10574615434488      2.28013840559101      1.72346929176000
  O   0.73391696087744      1.38291304136966      1.07732561931017
  C   2.00922726185626      1.23910820481562      1.48680210661795
  S   2.68451326864943      2.11332921870679      2.69540706144097
  C   4.94035500973693      1.08277683274238     -1.77821197498694
  N   5.73542966554665      0.95850138694761     -2.66815640997573
  N   2.60489763057168      0.21136098452615      0.83185241772311
  H   3.87641803068114      3.25102666169540      0.08902634234455
  H   1.60635894572874      2.22800219513162     -1.72051023348205
  H   1.69211159197238      4.05568603852106      0.53682061506274
  H   -1.35487640563168      3.94590018251390      1.44412712724314
  H   -0.37949232401989      2.00601575901528      2.73297998524951
  H   6.73435924027493      1.03558793778162     -2.49565903333696
