23
Coordinates from ORCA-job 6597optt
  Br  0.97829681563893      0.04351899996991      0.04959143106837
  C   2.84827531294917      0.08503777481215      0.01393158399754
  C   3.55545803464386      1.23538749488568     -0.01429320817059
  C   3.02931414314429      2.64306382621769     -0.03850350891882
  C   2.30662889005915      2.96815323797430     -1.26704515419084
  N   1.76519355920952      3.22938162687552     -2.24142233467680
  C   4.31386152674580      3.50015965651137      0.06965894808658
  O   4.34499517306767      4.68059884121257      0.19069903858257
  C   5.51233102313771      2.57127583224501      0.01332219752255
  N   4.93544985489524      1.24376453433728     -0.02626769486349
  C   5.77035154303985      0.10714874441453     -0.01734550497454
  N   7.04554857495000      0.10509046288752     -0.00385499220763
  C   4.97193738877116     -1.08694674861884     -0.01210325328363
  C   3.62480529379286     -1.10053339778263      0.01109420803799
  O   3.16360048683569     -2.37269192776863      0.08731351103595
  C   4.31889389116919     -3.16970602986392     -0.20241177300182
  O   5.45387377998552     -2.36069929258950      0.06835389644844
  H   2.38124860499684      2.85665884110782      0.81578949122658
  H   6.14101589050759      2.71447260573102      0.89618093355756
  H   6.11079410380867      2.78643419837068     -0.87669102903949
  H   7.45615036586993      1.03278124525067     -0.00349472934702
  H   4.30280060749063     -3.43295973384941     -1.26555948433505
  H   4.32517513529066     -4.04639079233078      0.43805742744561
