26
Coordinates from ORCA-job 6606optt
  Br  1.18008731312776      0.19383759999148     -0.50205023489511
  C   3.02422065573559     -0.02503621973545     -0.24028473312645
  C   3.60381415301532     -1.23591631695553     -0.08883950867699
  C   2.86202472469908     -2.54359020140057     -0.07488898128391
  C   2.40721207615483     -2.80397442294836      1.37690670710284
  N   1.82294785010998     -4.11444763893886      1.56792872105390
  C   0.62454165241495     -4.44671774137797      1.03099149067033
  O   -0.02435159521871     -3.71623966978995      0.32015295355640
  C   3.76282761297628     -3.64390870288778     -0.62235212411481
  N   5.01957787720150     -3.68660502998359      0.10898224147763
  C   5.75354402459814     -2.57062471191736      0.37050405211127
  O   6.89785317624832     -2.60956998403146      0.77163355833590
  C   5.02513567185007     -1.29001083424909      0.14903225831306
  C   5.72233047344784     -0.14226225262310      0.19163342085616
  O   5.15968241170470      1.04919492321704      0.01665521309153
  C   3.79778014849357      1.21793021503048     -0.20699784492282
  O   3.39019904908987      2.32680464145233     -0.34820159917881
  H   1.97049684761294     -2.47770186674107     -0.69792649616342
  H   1.67397189735769     -2.03805778502661      1.63716605323329
  H   3.25485083277347     -2.71624877300429      2.05582660390349
  H   2.28729956728642     -4.78147511012923      2.16022055784162
  H   0.29624041582973     -5.46183003453145      1.30517945941386
  H   3.93379862392503     -3.47329519966549     -1.68948924868553
  H   3.26834260378228     -4.60795469568044     -0.51514342766223
  H   5.53978589467289     -4.54986302898779      0.15578360925916
  H   6.78778604111043     -0.09943715908588      0.37157729848962
