19
Coordinates from ORCA-job 6609optt
  Br  1.10057324929638      0.37095373612708      0.06196224143037
  C   2.93571692849500      0.05238744054341      0.05805515065653
  C   3.48351306388131     -1.17647228990909      0.05830739935491
  C   3.01902772075744     -2.54563887698820      0.06104123429696
  C   4.14330566756017     -3.27849444225666      0.05876807814242
  N   4.40256180789165     -4.63105738401654      0.05968303419443
  C   3.41577949477924     -5.57357716628807      0.06189063445325
  O   2.23910863950386     -5.34254778854778      0.06302905283860
  C   3.95564695199366     -6.94739329122471      0.06275950038063
  N   4.37914863500815     -8.01061043939954      0.06336211582107
  O   5.30132633290371     -2.53102787353936      0.05459446247571
  C   4.91250889161710     -1.23492545416673      0.05389223928539
  C   5.71791237386677     -0.15466928796016      0.04883113386334
  Br  7.57685215203362     -0.27459451503761      0.03999231432709
  C   5.09967711421894      1.15918444325536      0.05022855096060
  O   5.63203250253251      2.22172461869418      0.04809179889402
  O   3.68579363839308      1.14776475691166      0.05473400319029
  H   2.00895703807977     -2.90975004006936      0.06403453350741
  H   5.37155779718760     -4.91825614612785      0.05874252192698
