17
Coordinates from ORCA-job 660optt
  C   0.83085550408330     -0.46661162231540     -0.00546439629709
  C   2.29384546001230     -0.02126087683688     -0.03613563799128
  C   3.09773523988646     -0.88784496761116     -1.00919811748048
  C   2.39339422781842      1.41442475148371     -0.44143969537338
  C   2.95771576060316      2.39171300286977      0.26482381939825
  C   3.01861987362337      3.76144731426845     -0.26282965905509
  O   3.53463800004308      4.68632393052457      0.30907853701681
  H   0.24669513002455      0.13020502750568      0.69495558072314
  H   0.75978083117258     -1.51442916796459      0.28921349786506
  H   0.38106382156690     -0.36535731286729     -0.99617706990620
  H   2.71920598201713     -0.12627892946519      0.96525511060806
  H   2.70292054654664     -0.78725479717122     -2.02295984036413
  H   3.03193922061966     -1.93903160975272     -0.72546277775323
  H   4.14825211431824     -0.59758984656118     -1.02298990367108
  H   1.97154185771714      1.65858667879241     -1.41779843510328
  H   3.39901574898566      2.22221471274139      1.24129928898297
  H   2.54878068096138      3.89974371235965     -1.25717030159906
