22
Coordinates from ORCA-job 6617optt
  Br  2.53490783863153     -0.32276088902994     -3.35745008723660
  C   3.45033229994946     -0.11799897059508     -1.71781272906328
  C   3.98288148455580      1.05546174678519     -1.31673330601364
  C   3.32736914478092      2.36843868584161     -1.40616518659184
  C   2.01091760202508      2.30494949518751     -1.14021065243253
  N   1.31740646704754      3.28561534344919     -0.45260149818649
  C   0.44134366199453      2.90388600142957      0.38164445146051
  O   -0.00466174281813      1.61421558053259      0.60560761977948
  C   0.70695224927208      0.44918834264900      0.84658530793749
  O   0.14432400501828     -0.58464015834989      0.71467326648568
  C   2.12000956050186      0.62559083156213      1.26559223115500
  C   3.13960158709998     -0.08611423643895      0.78468536117103
  S   3.10997163700365     -1.33465426664371     -0.48546761775873
  C   4.51554851985634      0.49128036371804      0.83205182875774
  N   4.89628209653117      1.07060861622800     -0.22787698124505
  C   -0.28454728174292      3.84217225812041      1.18575709588449
  C   -0.89717782690700      4.60195215156310      1.87781364972035
  H   3.90222857694526      3.26383690509956     -1.20917050037728
  H   1.48201198674702      1.37582183005147     -1.33307163899153
  H   2.34068456347648      1.48929566032094      1.88726131804536
  H   5.15973102641293      0.43956992297391      1.70578007180266
  H   -1.44311745638191      5.28228478554531      2.48810799569718
