26
Coordinates from ORCA-job 6619optt
  Br  1.99036436770773     -1.62686378773084     -1.92687938746657
  C   2.86262530173433     -0.36517905267978     -0.84864472310446
  C   2.88222067664583      0.94654106685458     -1.15074184695426
  C   2.17025715859066      1.66927986098933     -2.25145641507038
  C   0.88434878025693      2.34418051256814     -1.71822798355076
  N   1.12830888491772      3.30914905084371     -0.65465874785167
  C   1.13641357930694      2.93384541433559      0.65849562350858
  O   0.72572707386868      1.86114155507755      1.03750928144148
  C   1.84671489521752      3.88501447051042      1.62717670351689
  O   3.26157928928437      3.65732372469275      1.56046407602274
  C   3.67536854110778      2.44085158059395      2.06608979678208
  N   3.93319139719627      2.30042270018079      3.27661158888392
  C   3.70034887005588      1.35261797716610      1.02385586629020
  N   3.50629479806195      1.77940096463299     -0.24690552615347
  N   3.73981162347689      0.12271484219254      1.36673976693434
  C   3.52896627095949     -0.86187567053537      0.38212395436731
  O   3.80285366175100     -2.01779978855988      0.56608268726717
  H   1.90165408795305      0.97744771463834     -3.04665092628495
  H   2.83495354216342      2.42789095589704     -2.67554502209375
  H   0.21775096768708      1.58417193515392     -1.31354740480258
  H   0.37717962960267      2.84641315517710     -2.54090835555665
  H   1.48205866425219      4.22143868945527     -0.89589395924052
  H   1.70386335202725      4.93356324505226      1.37028326159126
  H   1.48694741053167      3.68693340098845      2.63612059649023
  H   4.22258127404138      1.33487679018084      3.44984843259136
  H   3.48861590160130      2.77449869232420     -0.40134133755754
