27
Coordinates from ORCA-job 6620optt
  Br  2.15878486257446     -1.39128274241776     -1.59318635640013
  C   2.58012939018755      0.08379866052227     -0.47822690106106
  C   3.10371032082623      1.21953933695758     -0.99550218023632
  C   2.95300397343655      1.67557729462082     -2.41291823913045
  C   1.71762784449535      2.64831574402193     -2.49029193073260
  N   0.95862510597365      2.60366753157817     -1.24306876701823
  C   0.92949484180196      3.63769594376869     -0.55425523013132
  O   0.53846830288558      3.67394643304905      0.76941570052666
  C   -0.02197972240087      2.58576049083055      1.39909081250219
  O   -0.90367607091237      1.93589645616357      0.94964823212466
  C   0.64776769139046      2.31368443408010      2.75344384795901
  N   1.46878000331727      1.09203280951380      2.70685255709173
  C   2.24113175253858      0.96138007093216      1.55873613444113
  N   3.03758187549399      2.01686923752059      1.25312126969036
  C   3.49937386854561      2.25344485913822     -0.04828530789722
  N   4.12470281475195      3.30868007760521     -0.40154560057378
  N   2.12735310781492     -0.07122605096343      0.79823677071872
  H   2.79833937999662      0.82421889409553     -3.06864195011329
  H   3.84152684364267      2.21382123418761     -2.73730856867030
  H   1.06193001541089      2.32895834275673     -3.29907850987410
  H   2.06799570157154      3.66239170450881     -2.70488286294118
  H   1.30795689645612      4.62146827682381     -0.83292768989872
  H   -0.12871286830727      2.15628242839991      3.49844694729633
  H   1.24568307697201      3.17135314421930      3.05653407173186
  H   0.90081391685740      0.25762334756241      2.79579581384623
  H   3.13869404550246      2.76145481910217      1.92729560147416
  H   4.28989302917666      3.94364722142218      0.37650233527567
