26
Coordinates from ORCA-job 6623optt
  Br  1.81963262905299      0.09962048922095     -0.93162518758453
  C   3.25572905709779     -1.04891863249327     -0.51260898776229
  C   3.20263227861207     -2.01460733307873      0.43371680583716
  C   1.94389369971048     -2.52837410264035      1.07238369935990
  C   1.45884090829116     -3.80197144900487      0.33193286174787
  N   2.00207795522883     -5.02390585773322      0.90819843413219
  C   2.99206928063089     -5.63726526011256      0.46286577539812
  O   3.77417308274953     -5.19974563961797     -0.59762373841395
  C   5.01827028796618     -5.76702166966983     -0.72673380576325
  O   5.26915119990453     -6.87217088944368     -0.36293159751288
  C   6.03000303190665     -4.79152736753774     -1.31863764160138
  O   6.33020592457303     -3.76783904517894     -0.37246544984388
  C   5.38073214252344     -2.78579265485374     -0.34245934072100
  C   4.37704891733520     -2.81864510277156      0.55393864258554
  C   5.43017500609483     -1.76785947345709     -1.38302635838391
  O   6.27617661977055     -1.65737195413684     -2.24590736654291
  N   4.35792397737916     -0.87992566820727     -1.30043264235207
  H   1.16033181302847     -1.77516591601937      1.02635617850922
  H   2.10947891714491     -2.77253869681380      2.12305257951633
  H   1.68633610279727     -3.70639610994145     -0.73361458998958
  H   0.37759075204236     -3.87479146095873      0.44364668477439
  H   3.35417523655111     -6.55735129708046      0.90878647406062
  H   6.95165387810529     -5.33696293784870     -1.49662032392633
  H   5.66049055426380     -4.36028378089702     -2.25238460983397
  H   4.39493414519268     -3.58822582220157      1.31594128737300
  H   4.36527260204677     -0.14296236752214     -1.99274778306241
