23
Coordinates from ORCA-job 6624optt
  Br  1.46743057246542      8.83286833888282      0.10800904594941
  C   3.06077345656955      7.85357795654737      0.02845398157030
  C   3.02768325726012      6.52207062233373      0.03241753020389
  C   2.01781266016587      5.44603011168845      0.06472065049870
  C   0.62449188986475      4.86661910246544      0.00014081038065
  N   0.98639324395547      3.43384340666246     -0.07022493903180
  C   2.11746186223719      2.91466442238972     -0.14810071212752
  O   3.50235541531962      3.41071640752795     -0.27519223301180
  C   4.30391852556674      4.34456618145838      0.33047887120972
  O   5.18704996300991      3.98596792793831      1.03874387651140
  N   4.23858534354403      5.77378422801853     -0.00448426658082
  C   5.42680321879618      6.49363736314936     -0.03168523836793
  C   6.72756725639398      5.71314005213630     -0.19779567036977
  O   7.75188525606729      6.10726196606947      0.25764272793332
  N   5.49973801157959      7.76252511294014     -0.05596440513338
  C   4.34850913417302      8.57757002051444     -0.00066801321983
  O   4.42898694464540      9.77368471362314      0.01851619774487
  H   2.36267971492337      4.91783248780004      0.95504212061191
  H   2.39317979175653      4.95145437575259     -0.82033525773350
  H   0.05301691987777      5.11390622488319     -0.89245307738992
  H   -0.00343496651344      5.01833355960117      0.87509006412133
  H   2.24245404065510      1.84220841005850     -0.21887069642400
  H   6.66565848768644      4.80173700755839     -0.81648136734522
