22
Coordinates from ORCA-job 6625optt
  Br  1.60997092284666     -1.55205502738267      1.92633184346289
  C   2.82667014302178     -0.68820782165847      0.79444354322415
  C   2.77265463732102      0.62871549388928      0.56628170449885
  C   1.79755852839717      1.60258607915882      1.07363343793423
  C   0.72538736016719      1.86749104811780      0.33308400787287
  N   0.27673525325248      3.21496126485405      0.11272772118552
  C   1.28830788225565      3.49368915250116     -0.90653097067669
  O   1.06026569595666      3.51786595413931     -2.06872119851885
  C   2.74542760452766      3.69770371520305     -0.40967009601486
  O   3.05975691455331      4.81644424611065     -0.09623893219168
  N   3.71549896998697      2.69984491427545     -0.49123400968860
  C   3.74608145435546      1.29729049023163     -0.35758251737062
  C   4.72954652953897      0.61555134215182     -0.96788915618427
  C   4.90411615851559     -0.81593882324424     -0.74902347933824
  O   5.78588969384081     -1.45782381671048     -1.25203521633868
  C   3.88348567628183     -1.53724659883885      0.17769483177906
  O   3.98152369347265     -2.71017822078123      0.38017788853800
  H   2.17767765488100      2.36031238884871      1.75502160325093
  H   0.36063805153015      1.16141679716709     -0.40476126742441
  H   0.48890556898553      3.78774005509151      0.93009147369777
  H   4.63483410741917      3.12244958781626     -0.54536756954480
  H   5.42706749889224      1.09938777905932     -1.63943364215257
