20
Coordinates from ORCA-job 6627optt
  Br  3.18078361487511      0.47717254063663     -3.63469164505258
  C   3.65309040995051      0.02528088400768     -1.87318621232439
  C   3.04697090862540      0.53868745867837     -0.77041734749197
  C   2.21961903205877      1.73841436774078     -0.86995509742605
  C   1.69540580547823      2.46733792510040      0.13493379435970
  N   1.71064454818928      1.99236975808483      1.44427592928629
  C   1.02181215399530      0.95224007351501      1.57926781536967
  O   1.21430006515543      0.09493249950084      2.60228993644474
  C   1.86574746187283     -1.02955008327558      2.07284831644134
  O   1.44833606222471     -2.11965030898417      2.26577316306854
  N   3.03532257378637     -0.73587888254304      1.43373033331359
  C   3.55512461170020     -0.15545334518852      0.45995047257884
  O   4.93676661050560     -0.25512199482173      0.44689802275349
  N   5.52833570620787     -0.80339865642708     -0.65838462421195
  C   4.84892164478505     -0.77059558889404     -1.74183179560216
  C   1.18852423597421      3.78872119459643     -0.10543822425984
  N   0.77011552494537      4.83984466422970     -0.29325413229632
  H   2.18317555190572      2.17307313829619     -1.85921290372825
  H   0.30649942356648      0.59969296448202      0.82929801577619
  H   5.31250405419751     -1.23711860873470     -2.59989381699888
