28
Coordinates from ORCA-job 6632optt
  Br  1.22293896557439     -0.02766112751409     -0.72737498397583
  C   3.02762320001868     -0.16629275604395     -0.21103302183304
  C   3.57349358226977     -1.32350106347432      0.22991226906651
  C   2.81623660498113     -2.59514163255251      0.43321538713944
  C   3.12063241289619     -3.57633849182826     -0.68283053692854
  N   4.54392088864952     -3.88434085290704     -0.79942231290950
  C   5.55875374168887     -3.73700850883425      0.12362776354579
  O   6.42055249572208     -4.59076666965648      0.23185524815187
  N   5.64080376425048     -2.57357452671926      0.87959801827703
  C   6.92772584527388     -2.46135865121102      1.58859916981133
  C   7.11169016455214     -1.08172388589522      2.18350649005847
  N   6.89313884443211     -0.08687527727444      1.13288628595499
  C   5.63890391990091     -0.19182229861160      0.59759736155597
  O   5.07999364213343      0.97612998125600      0.24897352777258
  C   3.80918994525819      1.05607543591696     -0.31668917779327
  N   3.40924705425045      2.14190107941936     -0.81295638063428
  C   4.97447450978572     -1.36889010603522      0.53033264797227
  H   1.74643451257387     -2.40602808195232      0.45627830363561
  H   3.11455945464391     -3.02628860433230      1.39155666174250
  H   2.77110427268873     -3.15572766656071     -1.62850883034688
  H   2.56460969183381     -4.49984252827294     -0.50111166855200
  H   4.72319517881770     -4.73773575407731     -1.30814573575207
  H   7.73458096480393     -2.66226398067905      0.88338310540048
  H   6.97518630092858     -3.22299924017934      2.36626994629278
  H   8.12938508748833     -0.99180157900902      2.55686607925578
  H   6.41364177874309     -0.92252508143175      3.01314467905384
  H   7.16574563855572      0.86290899490986      1.34153531518811
  H   4.12423753728433      2.86249287355026     -0.75306561114993
