25
Coordinates from ORCA-job 6634optt
  Br  1.05502872681391     -0.05118288694613     -0.23714642768015
  C   2.93383166156663      0.03712797309118     -0.01665721169242
  C   3.56769802542946      1.23906941227726      0.30999200378376
  C   4.96336143797830      1.27409986849152      0.36332715463352
  C   5.65590245829898      2.58738664351392      0.60579589353375
  N   5.35969232714065      3.53209330673072     -0.45432179363085
  C   4.18227244887038      4.19466536025592     -0.56154866643899
  O   4.01491095064167      5.17682939780854     -1.24333851869728
  N   3.13676562709222      3.70449631210397      0.24112875824285
  C   2.76287974115528      2.45020178584586      0.69836623901233
  O   1.78314864094596      2.35388250540382      1.39308057088792
  C   5.69326498960007      0.11730140208140      0.15315247813569
  C   5.05176179656543     -1.07456053716250     -0.13546942434625
  C   3.66887204801125     -1.12963004542038     -0.24220718712322
  C   2.95444047794828     -2.41748859909820     -0.59329304348958
  C   3.84825198174250     -3.56058117127262     -0.74896564375998
  N   4.55417010454275     -4.45412590519340     -0.86988835740839
  H   6.73288374474413      2.43787271682076      0.63077275544669
  H   5.35761338004334      3.00905301916903      1.57002035555717
  H   6.10184954761130      3.90486235839363     -1.02314640036881
  H   2.41111201627858      4.39537836936783      0.38768359007422
  H   6.77424961639615      0.14776640769014      0.20773818862417
  H   5.63221517179902     -1.97416387652540     -0.29651659882506
  H   2.38974075179774     -2.29322425829298     -1.51987519028406
  H   2.22008232698595     -2.65912955913392      0.17831647581299
