27
Coordinates from ORCA-job 6636optt
  Br  1.63782006845757     -1.69121212447177      0.37922613762129
  C   2.69712537090067     -0.16959239160220     -0.00800453853454
  C   2.43281779974950      1.05627583456517      0.61426202130709
  C   1.36160530241508      1.21959666466670      1.65819587632865
  C   0.00232086132250      1.61610345040887      1.05000128281140
  N   0.10839924115559      2.81750034066246      0.24372682576840
  C   0.57515083659344      2.67708386190593     -1.04987366566397
  O   0.26360950179669      1.74095372309041     -1.75570433084329
  N   1.42411303139537      3.67191880963738     -1.47824650591470
  C   2.35574533438334      4.38327662559403     -0.61493108284163
  C   3.00291466979993      3.55451938861200      0.53014194230502
  C   3.21268579794551      2.11817295536414      0.13550105826490
  N   4.17554347745613      1.93908735349810     -0.77391908530282
  C   4.35809379266101      0.70946325825096     -1.21436453792219
  N   3.64826320021135     -0.36400593321752     -0.88981534158752
  C   5.45149419494826      0.50448758389662     -2.14758629905558
  N   6.32969092660123      0.34858126386900     -2.86522591869842
  H   1.66927898517621      1.97696836559361      2.37989782958422
  H   1.24671983227796      0.28769033357416      2.21032203902431
  H   -0.72396293537319      1.77189043034038      1.84701022578243
  H   -0.36866833307856      0.82400436821343      0.40178243379449
  H   0.38136582710623      3.65538608722739      0.73117487866375
  H   1.74411316670055      3.48874447745055     -2.41676376833312
  H   3.14815058589225      4.74566802235634     -1.26581699740569
  H   1.88311417167718      5.26505158106175     -0.17417914282000
  H   2.41385429391798      3.62516479000633      1.43950981756349
  H   3.97864099791014      3.99422087944573      0.73867884610406
