26
Coordinates from ORCA-job 6640optt
  Br  1.23063182567847      0.31931350424127     -0.55922341820070
  C   3.10259656331693      0.16188633758200     -0.25200761943470
  C   3.66109607741069     -1.09864736613880     -0.01337562162795
  C   2.87110143567517     -2.37486774459377      0.03758957895172
  C   2.24658072861791     -2.52832565620981      1.44480251414682
  N   1.65504767502873     -3.83337425173599      1.66042079839599
  C   0.56734023156369     -4.25441541179875      0.97296534304949
  O   0.04497546480626     -3.62743828132149      0.08092171859963
  N   3.71547106855455     -3.50365986617770     -0.31480800487966
  C   4.95848890965761     -3.70028184469316      0.24984651874228
  N   5.55996499404378     -4.79693230737128      0.44562644041291
  C   5.71739680351196     -2.41250705684625      0.55845728546190
  O   6.81872364869197     -2.43108808014414      1.02762026279716
  C   5.02863623162974     -1.12229938937815      0.23526141208154
  C   5.76490130955708      0.05634371602041      0.21460199139896
  C   5.09762669700674      1.23271598187946     -0.06200178625785
  N   3.78279479397315      1.28025433899973     -0.28675948328962
  H   2.05966997327024     -2.33674660222886     -0.68726399540809
  H   1.49095862530498     -1.75095834137940      1.57644002972530
  H   3.02282408954794     -2.38978479757881      2.19881113986656
  H   2.02092963701673     -4.42436989400630      2.38757510616409
  H   0.20412611312383     -5.24084454011918      1.30213612382436
  H   3.19728082287189     -4.35224558956061     -0.49588396132172
  H   4.97968029367224     -5.59789600334902      0.19485263584675
  H   6.82768735891947      0.03047547766252      0.41152304111562
  H   5.62146862754820      2.17969366824615     -0.10512805016083
