24
Coordinates from ORCA-job 6642optt
  Br  1.14121023495201      0.20087288012328     -0.58995500713360
  C   2.97885636002710      0.01251371616648     -0.29537613607805
  C   3.57363994464541     -1.18129213123992     -0.12025434198119
  C   2.88592898915982     -2.51232542938765     -0.06200287669797
  C   2.28580703166216     -2.76053421368453      1.33346063680603
  N   1.55198295055615     -4.00793447758420      1.38265302678062
  C   0.30379530884765     -4.09373987938695      0.85724901137674
  O   -0.24192000390477     -3.18496447844958      0.27683508469233
  N   3.83891427653642     -3.55011801046358     -0.42337520989719
  C   5.16145437422789     -3.53348345249741     -0.10375283772813
  O   5.88860784430852     -4.49488848051422     -0.13566459759618
  N   5.66269285026527     -2.27081870301501      0.24055159395606
  C   4.99261734740456     -1.09475227528343      0.09025756134925
  N   5.67644148238941      0.00737735238277      0.15158135572659
  C   5.04372663629447      1.20095363301635     -0.00050896399610
  O   5.51294078826201      2.28653790520149      0.04776969125439
  O   3.62780237694062      1.15543931904334     -0.26814343779472
  H   2.06700835094865     -2.53654357414716     -0.78233403301496
  H   1.60541852395073     -1.94155007545614      1.57351214476628
  H   3.08435186110102     -2.79081734162417      2.07529526515512
  H   1.92272346371949     -4.79518945858981      1.88710152006228
  H   -0.16552333550228     -5.07833863903988      1.00515471064566
  H   3.48182788944969     -4.47052758260902     -0.62854587577721
  H   6.66469445375795     -2.22387660296099      0.37049171512395
