27
Coordinates from ORCA-job 6648optt
  Br  1.22938087409098      0.27931852863428      0.04631663403311
  C   3.10575573616476      0.08885306769205     -0.02038449529489
  C   3.71675056479033     -1.06398479202224     -0.40567060528625
  C   2.92993027683434     -2.22348266214412     -0.97374398950589
  C   2.37061272173744     -3.23892482144988      0.04511760274775
  N   3.21700967060592     -3.49419815962228      1.20169843433733
  C   4.56692859399809     -3.41113789713891      1.19304723848046
  O   5.27416048148772     -3.29293935391011      2.15730573770146
  O   5.03340437935642     -3.47060453237858     -0.08937642244865
  C   5.89153498553189     -2.39055354801670     -0.42917782516173
  C   5.15893280361352     -1.06537135185950     -0.29152130808349
  C   5.85198815448907      0.07921977796367      0.00908249428637
  C   7.31652089251086      0.09679656066622      0.17289561005003
  O   8.08296747591367     -0.68469683320190     -0.33373832873397
  C   5.15876915559021      1.34483702589066      0.25090670104630
  N   5.60749934764149      2.52815791603905      0.39728273238183
  N   3.77330633950125      1.19706161130869      0.35320301687185
  H   3.54942500875200     -2.74062282938352     -1.70071034145312
  H   2.07630927251185     -1.82631503770837     -1.52432207837682
  H   2.15258536999416     -4.16826515417339     -0.48551253222767
  H   1.42741683290390     -2.86136338435480      0.43994044833950
  H   2.80592862228575     -3.45680098564772      2.11936690086189
  H   6.20758095364148     -2.55796027795123     -1.45848154034022
  H   6.77674249388961     -2.40641656342325      0.20032179298314
  H   7.70004561068442      0.89537208327024      0.83200881089661
  H   6.61443287735303      2.58164448912009      0.30349335706734
  H   3.27008050412576      2.03937712380157      0.59665195482774
