23
Coordinates from ORCA-job 6649optt
  Br  1.58776052033329     -0.52457493771689     -2.54816738047652
  C   2.75289707421067      0.10251411898330     -1.19083755018091
  C   3.55263266624490      1.18537001975115     -1.32620924653141
  C   3.06735532686214      2.51515218450128     -1.75167202351897
  C   1.85126050916562      2.73569459492954     -1.23325422178227
  N   1.24747584982632      3.90085598458932     -0.77387873462401
  C   0.61258085057702      3.85950830543018      0.45674765297068
  O   0.47926732365190      4.80806084555223      1.16381121128507
  O   0.02723120926528      2.64340702998657      0.75531963166227
  C   0.57401590049933      1.53065837306929      1.39070105893412
  N   -0.15036543010569      0.56297679399054      1.70520608204086
  C   2.03961315917419      1.53904932720145      1.60181898391206
  C   2.87402658366050      0.66820533154210      1.03681028367275
  N   2.50354134547552     -0.33593825036818      0.09811604653008
  C   4.30079639450634      1.04350963611883      0.81661712074884
  Br  5.53891856477107      1.10235571058658      2.24229733037599
  N   4.60870586401206      1.32890166540159     -0.36895857787428
  H   3.76631151558212      3.29689680512333     -2.01720667180631
  H   1.25212245552358      1.87760571526134     -0.97727710208447
  H   1.69485399465088      4.79195942521963     -0.94128663841504
  H   -1.12664392035181      0.72853977091774      1.46115851255934
  H   2.46354160738280      2.36890114786157      2.16062147613683
  H   2.51710063508197     -1.31360959793250      0.35952275646527
