20
Coordinates from ORCA-job 6650optt
  Br  2.13236345747901     -1.46228644438143      0.45817618823674
  C   3.00847524415401      0.03700703976908     -0.25876620409127
  C   2.47936102663413      1.26730511951880     -0.12437269329875
  C   1.30827168422350      1.64155883952707      0.68121586920558
  C   0.09415484329130      1.87415548894470      0.20101718130124
  N   -0.68930761824397      2.84757423836750      0.83603302504929
  C   -0.23727214717899      4.13279826437070      1.07208701651543
  O   -0.87944695177640      4.96883248816326      1.62502889319239
  O   1.05089837280942      4.38270387563603      0.64802932394029
  C   1.38513750213948      4.06875151857404     -0.66093251574081
  N   0.65379352322061      4.25881294383509     -1.66109011686487
  N   2.70317885935493      3.64093581989706     -0.80529277472992
  C   3.14735086408795      2.46173059226467     -0.67889866650581
  S   4.81324597898712      2.20515078171738     -1.17389391471958
  N   5.04331711627767      0.54670526713337     -1.21215135881661
  N   4.22047338763928     -0.31437365304692     -0.85395964729624
  H   1.56190098249061      2.08563114711886      1.64019614471802
  H   -0.25825084960289      1.48768610208625     -0.74893130557500
  H   -1.68703583524968      2.74286754173568      0.93883036481194
  H   -0.24060944073710      4.67845302876878     -1.41632480933205
