22
Coordinates from ORCA-job 6651optt
  Br  2.83424257237166      0.55183743091051      0.21414524446521
  C   4.19882588873719     -0.64868662670663      0.73594547088859
  C   5.56674732848896     -0.21957902519466      0.97315146753363
  C   6.26854649155005      0.71710354110603      0.30082403286694
  C   6.14981693132059      0.78239967612209     -1.16975032667496
  N   7.45917409299455      0.37579558291707     -1.70351578739711
  C   7.51679951187637     -0.90531379311158     -2.22244988417471
  O   6.82041660060153     -1.39456442806964     -3.03691220674258
  O   8.59694252201998     -1.64245574159092     -1.66824876313201
  C   8.63611119460390     -1.77587966374677     -0.32343692146979
  N   9.65737620665955     -1.81996548948443      0.39554189141198
  O   7.37832936127586     -1.86710109164717      0.17857615763373
  C   7.18090337980138     -1.69210464731577      1.53751690302709
  N   6.26237461183108     -0.95261610757408      1.97185238264125
  O   5.20617140789831      0.89816471758568     -1.87743965641009
  C   3.81714636634665     -1.88274712986983      1.00901330421151
  N   3.42892892399152     -2.97257500373986      1.34551735001258
  H   7.25363165393014      0.92096690741916      0.70292241702210
  H   8.22029127939742      0.56542581292645     -1.06661967048560
  H   10.50339754056316     -1.70942797030589     -0.15468843412402
  H   7.84119594109199     -2.26694153090543      2.17543964690097
  H   3.40563019264804     -3.72373541972428      0.65761538199528
