21
Coordinates from ORCA-job 6656optt
  Br  4.21728511342057      1.18817979081427     -0.27977260988959
  C   3.14520314151709     -0.35638736316602     -0.15617548413304
  C   3.63019991344380     -1.61591284071196     -0.16859465677426
  C   2.81138678548425     -2.82980754677253     -0.08993656206067
  C   3.34070656038120     -4.07647621754737     -0.09667925856506
  N   4.67979322267748     -4.41877130726412     -0.17247432206505
  C   5.60339676482609     -3.56469897857291     -0.26316539498038
  S   5.40853457788469     -1.80408638114695     -0.30267207866211
  O   5.83949054213769     -1.33451611980172     -1.58910778867503
  O   6.03282714467099     -1.27709458583291      0.87732417448106
  C   1.37248979202802     -2.65523712440659     -0.00902203471806
  C   0.75124433921807     -1.42833560090121      0.02907745058908
  N   -0.59463725843537     -1.61453115748877      0.10055382859415
  C   -0.85575549657012     -2.96186836796640      0.10651910974737
  C   0.33069855164418     -3.63071371195793      0.04104725507926
  S   1.49135292874396      0.13240273129089     -0.02348774428797
  H   2.67868289576827     -4.92759412848127     -0.03617319066422
  H   6.65244274369591     -3.84877814851481     -0.31586362311140
  H   -1.28616594987669     -0.88532678740040      0.13458260170970
  H   -1.86726129959399     -3.32622782728750      0.15459492904599
  H   0.44108498693388     -4.70121832688374      0.02442539934023
