25
Coordinates from ORCA-job 6662optt
  Br  1.30559810499336      0.04855883539273      1.38398289495923
  C   2.94479425435886     -0.11525101087330      0.47316146612732
  C   3.58086635807598      0.88924777158907     -0.16997752497359
  C   4.90877781765863      0.55355246011244     -0.71176508387929
  C   5.54468694078484     -0.56297967804384     -0.02999132956963
  N   4.89754345085078     -1.48144783061064      0.58065509380706
  N   3.54340295929010     -1.33662718695967      0.62822196547233
  C   5.54895984228396      1.39921866535293     -1.53917068977672
  N   6.91998174886861      1.82730037642408     -1.41906806353532
  C   6.61697012784297      3.03319095703860     -0.64422277391090
  C   5.99915140470057      2.95383324508021      0.53233366450541
  C   4.90120242896611      3.88857182887427      0.86525028598348
  N   4.95455116726991      5.04348756891814      1.38585809034272
  C   3.56546944433298      3.45757612282992      0.33944901423307
  C   3.05554725457277      2.29097892812577     -0.12617281241862
  C   1.72410815662506      2.42130385922889     -0.67687988399918
  N   0.68336643431916      2.52641890787074     -1.14967983253606
  H   6.62027598825900     -0.70092619779524     -0.05927974500971
  H   3.08241257644292     -2.03413530197348      1.18859427587984
  H   4.95285085681950      2.13150068073152     -2.07166551335710
  H   7.47101127031829      1.17074206605641     -0.87640924671767
  H   6.60518699995562      3.94517915139378     -1.23152355839720
  H   5.94007840895017      1.98582037272905      1.01996828544790
  H   5.90778126427456      5.26046712024697      1.67684400931316
  H   2.89642473918520      4.31041828826062      0.28448701200946
