22
Coordinates from ORCA-job 6663optt
  Br  1.96688006080095      0.73853628389859      1.70363260515536
  C   3.54117944631225      0.68778638766723      0.69115951299898
  C   4.27368313937941      1.76180640853569      0.28856235817655
  C   5.43378789061575      1.47230696866259     -0.53907636500846
  C   6.00367578758986      0.15011295071563     -0.28923011324852
  N   5.29424854608862     -0.82677008350503      0.13333641282182
  N   3.99599323192458     -0.56175770333455      0.43799202963278
  C   5.96498293458275      2.36834847850602     -1.38586185819503
  N   7.33759530286204      2.28168779604509     -1.68657737812165
  C   8.28473916463683      2.46002585156508     -0.70521218892419
  O   9.45307885009619      2.28999141810662     -0.82316135570881
  O   7.70564705982443      2.79031275970685      0.52315218954106
  C   6.98266975416338      3.94778855734402      0.51731960275884
  N   7.38557199854106      4.92929247034913     -0.14977966975878
  S   5.54034758080307      4.02381097576834      1.59001803234187
  C   4.08803002585463      3.07458838901286      0.93088259373644
  O   3.04240486805846      3.54221493274766      1.26332914520922
  H   7.04038406280049     -0.07411398393902     -0.50552601211621
  H   3.48145200736245     -1.35771287709043      0.77965374729664
  H   5.42840706955227      3.26746641856407     -1.67116015473409
  H   7.69179553014333      2.31409160925029     -2.62982882599659
  H   6.75744568800715      5.72318599142325     -0.06862430785725
