24
Coordinates from ORCA-job 6664optt
  Br  2.10627359602138      0.08076613239501      1.82487745866482
  C   3.41514974978734      0.19760397546355      0.47210382488464
  C   4.06511167115207      1.32135355186895      0.10196345665628
  C   5.11509024639371      1.14544692871997     -0.88493912001095
  C   5.70607575883834     -0.17388532460017     -0.91581440320881
  N   5.04458858148535     -1.21209921650880     -0.55315652329109
  N   3.79901443344015     -1.00338775761805     -0.04565754155511
  C   5.66225043656290      2.26953338456714     -1.42659214905110
  O   4.78867532616313      3.33040126904246     -1.55545119348688
  C   5.24531359205173      4.54183675153725     -1.93457363209040
  N   6.46404444193408      4.81506711918804     -2.03977775265089
  C   6.99078765939648      2.51724935901275     -0.77873893336454
  O   8.06279381705918      2.05593719118527     -1.05065473586624
  C   6.69143659635785      3.20275418333044      0.53190049386573
  C   5.52396340729339      3.16901126255376      1.19074389927889
  C   4.16174389071228      2.58363696534420      0.89616364977388
  N   3.19336719782203      3.19682357860724      1.44176917974628
  H   6.70600651186365     -0.33369157711676     -1.30212569934359
  H   3.32599761046555     -1.84580433335263      0.23709403969239
  H   4.39711590835155      5.19801175109332     -2.11921426492105
  H   6.60377558449814      5.77119524636654     -2.34927047251989
  H   7.53860425188343      3.70576731788347      0.98424151008429
  H   5.48322436928740      3.70338832696430      2.13405912838722
  H   2.29859536117886      2.77508391407272      1.19704978032614
