21
Coordinates from ORCA-job 6666optt
  Br  1.10688648076995     -0.56151748150959      0.16305232626381
  C   2.92221140483383     -0.12485265396605      0.17229027852916
  C   3.47774496551982      1.13661343713409      0.12035985107269
  C   4.91629489582511      1.17503736111334      0.03290534368558
  C   5.65109404345247     -0.02146134691573      0.05980705194136
  N   5.07035156888605     -1.18749039629349      0.14998629982091
  N   3.74212139572875     -1.18706962368299      0.19628746358000
  N   5.37769984035143      2.41786730652769     -0.07683106171950
  C   4.28060313191367      3.18275712711905     -0.07697521627349
  O   4.51105407760664      4.52503152551324     -0.18535733841676
  C   3.85451784323632      5.42411447641336      0.56718708876633
  O   2.94963771766385      5.19713150271865      1.30856514533839
  C   3.06439992624898      2.49279759046640      0.04017835345131
  C   1.70427806303674      3.01622369209577      0.13123814049886
  O   0.80093090878674      2.46455967417501      0.71501779115255
  C   1.34549497615915      4.28997427048907     -0.63404138243380
  O   1.91600120007631      4.63374495730045     -1.62793378277901
  H   6.73136648353100     -0.02611888788464      0.00654208437824
  H   3.33093692516343     -2.10970351502368      0.24040347276171
  H   4.29043014723100      6.41117490005477      0.38855686294332
  H   0.46094400397871      4.80818608415522     -0.22623877256168
