24
Coordinates from ORCA-job 6671optt
  Br  0.98812649869843     -0.14217466576474     -0.29461311417447
  C   2.85246581523333     -0.11067860536123     -0.04313400383849
  C   3.50393849727782      1.09669745374075      0.05506288951205
  C   3.08198202658042      2.54161144293382     -0.00234862978405
  C   4.41262983131741      3.30346901308966      0.10970292072874
  N   4.69759404600434      4.52874157216286      0.00890860529777
  N   5.39313220576568      2.34685643956986      0.34670699026502
  C   6.82182251007442      2.52947927988778      0.31739251766880
  C   7.56414632812087      1.26887166403164      0.76109696088190
  N   8.72641705133039      1.25204683639716      1.22447707301676
  O   6.97882701703891      0.04164122130719      0.57608285113692
  C   5.63468139993896     -0.05479796436636      0.35247167513407
  C   4.98833240067392     -1.26912211117057      0.23514464850146
  C   3.60095500664850     -1.29956785198786      0.03588478050364
  C   2.95944668700662     -2.57222190452546     -0.09387061850331
  N   2.46351008219252     -3.60144605593546     -0.20360181651324
  C   4.87380739290846      1.08610569789450      0.25397041024506
  H   2.42008049385600      2.81119053374149      0.82329050398638
  H   2.57097797799578      2.79650959937868     -0.93191821924664
  H   3.87244615345202      5.09536933865850     -0.16181527568766
  H   7.10051281131669      3.35141310414138      0.97492545034637
  H   7.15435416446788      2.78565312798844     -0.69492151315697
  H   9.10385185300048      2.19172399162655      1.30971213279957
  H   5.54596174910008     -2.19337115743858      0.29839278088033
