20
Coordinates from ORCA-job 6672optt
  Br  1.05596718707995      0.27603634937861      0.05390950432269
  C   2.89056140936977     -0.05635758196935      0.04403858962983
  C   3.51749167517042     -1.29132407255567      0.04120555767049
  C   4.94552762663915     -1.23347948987910      0.03462117197860
  C   5.63016564954697     -2.52082044851599      0.03213639021333
  N   5.04082331360310     -3.64977397026550      0.03509685947984
  N   3.68489107876636     -3.68586044257042      0.04078197036097
  C   3.12625175341002     -5.03851076549032      0.04321599077677
  O   3.86301773234732     -5.97210257600681      0.04050869474675
  N   1.75193107304132     -5.08577243301752      0.04861785011872
  C   1.09037553102026     -3.97657947261401      0.05122360389314
  N   1.57118345429311     -2.70791907608398      0.04928125429913
  C   2.86847934792314     -2.58758171569434      0.04405588871182
  N   5.68873093313382     -0.16541748728377      0.03082152809795
  C   5.08313701179482      1.06324424523151      0.03292725698110
  O   5.62172953190593      2.13375432905988      0.02973548184332
  N   3.64945611501442      1.03565282493065      0.03991084336275
  H   6.71304735982246     -2.52390286486968      0.02743490605852
  H   0.00675523442509     -4.05053327493020      0.05565707631800
  H   3.21347698169253      1.95024792314601      0.04181958113628
