24
Coordinates from ORCA-job 6677optt
  Br  0.75087848952548     -0.05508949585312      0.29152086660871
  C   2.60935178212583     -0.07070221764985      0.15405481632970
  C   3.35945976112755      1.04926886695573      0.09698444851120
  C   2.97027789774478      2.49625138179857      0.11238633912534
  C   4.31484845631672      3.21324639929814      0.02030302744158
  N   4.60039810612672      4.44116690374920     -0.00762589685177
  N   5.29162234367771      2.22805840108921     -0.03796467181838
  C   4.78318238157309      0.95021829522136      0.00368723083371
  C   5.43317471673633     -0.24808152927755     -0.03418684953749
  C   4.62303280944279     -1.40238751662723      0.01548567606765
  N   4.92862545156805     -2.69182842719685     -0.01750687213906
  C   3.72710355131392     -3.29355094279303      0.05201874564955
  C   3.56495881018640     -4.78213473236545      0.02899015547336
  C   3.89938834407928     -5.33859649244906     -1.28360018368798
  N   4.15410332010100     -5.77496228047889     -2.31089286993255
  N   2.67629014913430     -2.49972450282578      0.13492402276590
  N   3.24840568321583     -1.27709849348018      0.11004821174167
  H   2.44545908761378      2.78256205411370      1.02544988689812
  H   2.33707905619588      2.76759699625704     -0.73436933954171
  H   3.76632491462067      5.01822406425452      0.04480286845852
  H   6.26835063672139      2.46312206971322     -0.10649712386533
  H   6.50452817388303     -0.35436076677637     -0.10836588371468
  H   2.53373351521154     -5.03718565873728      0.26948730673462
  H   4.22342256175790     -5.23401237594005      0.77186608844932
