25
Coordinates from ORCA-job 6678optt
  Br  1.01086664404671      0.07632615990963     -0.64304678605911
  C   2.89952589208835     -0.01316308310232     -0.44956202120555
  C   3.51374920421409     -1.20054565322911     -0.24005620661324
  C   2.91274946533702     -2.50482949006929     -0.14126110590911
  C   3.70828603958482     -3.57074635826286      0.05161626228547
  N   5.06482622979078     -3.41650105978509      0.15097940634383
  N   5.68311442480365     -2.24376886683768      0.08252060034653
  C   4.96824944006316     -1.18228475450161     -0.09808100609396
  C   5.69395986845730      0.11815301344694     -0.15093971800024
  N   6.93629074447368      0.27965206362173      0.05150731628286
  C   4.81814264323059      1.28261357019792     -0.44398622455738
  N   5.45854032604376      2.49999898027828     -0.61317161186282
  C   4.82353601990856      3.54587161446410     -0.26926768325285
  N   5.34248380931820      4.78254899344028     -0.50901786195653
  C   4.80056971577962      6.00223031584385     -0.11566374214132
  N   3.74085871759850      6.24452683469034      0.52279329667963
  N   3.53865628689343      1.18465385110639     -0.56535582766669
  H   1.84325962974018     -2.62552808975955     -0.22027341410179
  H   3.34744542996331     -4.58503472122742      0.13786393626598
  H   5.67457433394220     -4.20416212249877      0.28787789776054
  H   7.37307389348609     -0.62217050225835      0.25349321186504
  H   3.85214012517395      3.51425412675409      0.22373527203455
  H   6.22993742828091      4.79056863489955     -0.99085706485610
  H   5.42309807575197      6.83681060731122     -0.43233267440410
  H   3.21606561202912      5.41152593556772      0.78048574881636
