25
Coordinates from ORCA-job 6679optt
  Br  1.04464528940271     -0.26370926593223     -0.00341903349649
  C   2.91440060555634     -0.17443801427533     -0.13052788733400
  C   3.60414731781829      1.00326368239896     -0.02346182608801
  C   3.16726674647843      2.42009553571486      0.19386069707420
  C   4.48788619623880      3.19117694464041      0.22293995393791
  N   4.71882436611378      4.42228536558494      0.38611532774093
  N   5.49531812358902      2.26388293709158      0.02894779972860
  C   5.01928643549750      0.97449874188276     -0.11495151426015
  N   5.77842495116344     -0.07689207619894     -0.29951895593956
  C   5.08072800451763     -1.22223146490329     -0.40783791278924
  C   3.69276804585337     -1.31012578285360     -0.33367782137202
  O   3.28716321549168     -2.58898171276179     -0.48087634499128
  C   4.42312335280821     -3.32537824439097     -0.64770586102341
  C   5.54050155122776     -2.56930948240210     -0.61289832179384
  C   6.96914742411611     -2.99236170094780     -0.75048213796584
  C   7.11517569117841     -4.43141782215339     -0.94925843200658
  C   7.21080767802988     -5.61351254448278     -1.11156121539049
  H   2.62762447752496      2.55488181673608      1.13326652682862
  H   2.52885205471033      2.79116617800322     -0.61052260247301
  H   3.85719192379386      4.94445957320872      0.51371489246301
  H   6.47108132268771      2.51176889855950      0.00998344266879
  H   4.28335914747162     -4.38433613026560     -0.78129807408003
  H   7.52372715408496     -2.68782749889890      0.14106961973725
  H   7.42739641515187     -2.45793933311164     -1.58656910547120
  H   7.30915250949329     -6.66301860024265     -1.25433121370416
