23
Coordinates from ORCA-job 6684optt
  Br  1.15282567051414      0.16800667018653     -0.07756212640049
  C   3.01934895889483     -0.00850149009223     -0.01191474834532
  C   3.66711874201603     -1.13137515143177      0.34317325891000
  C   3.02489982228701     -2.37140840772963      0.89413275434599
  C   3.03032631838348     -3.55023278209124     -0.05417899214365
  N   2.02739064885671     -4.08095744600043     -0.61511696895071
  N   4.27226944847077     -4.12359044333657     -0.26702857887759
  C   5.49544004668289     -3.57109878117393      0.03699707994853
  C   5.86520371184975     -2.27516197844011      0.27153649500444
  O   7.19319653221084     -2.22656893266565      0.48907634273380
  N   7.71472126810264     -3.47211477577014      0.38948909284772
  C   6.73100982081028     -4.27604534965010      0.12249028491311
  C   5.11009778670515     -1.03567953561553      0.18738570447788
  N   5.74215724162772      0.05732908231485     -0.06803932497575
  C   5.02234396557125      1.22573168463514     -0.21307200210549
  N   5.46220500288914      2.39665455137222     -0.26774980317635
  O   3.62954953204082      1.10798636815241     -0.37299527298379
  H   1.99438034314005     -2.16370778845636      1.16942201979862
  H   3.55942584111934     -2.66309582364762      1.80331369626896
  H   1.16507237244725     -3.61141858317370     -0.35692597619794
  H   4.25312240007706     -4.96472907642755     -0.82503210036611
  H   6.91308601582017     -5.33174790181644     -0.00561596545625
  H   6.47580850948259      2.37272589085785     -0.19578486926962
