21
Coordinates from ORCA-job 6686optt
  Br  1.10317101296283      0.14740051600959      0.17311659297267
  C   2.96441918503446      0.04053482830495     -0.03876437603016
  C   3.54960827713367     -1.18659964254695     -0.04276828872607
  C   2.97716201346989     -2.56191754326201      0.13449903961202
  C   4.00287171083524     -3.69522760734828      0.30405048854910
  N   3.69176550302857     -4.89679764876976      0.52655032449177
  N   5.37470367393556     -3.41246145096673      0.21511500899943
  C   5.87293115082847     -2.16959046922999      0.01748180211500
  N   7.09331678782399     -1.71791656344303      0.04556075698863
  C   6.93608286008870     -0.32259408573085     -0.12371743453893
  N   7.65995728719667      0.75991817387535     -0.02591170140579
  S   6.65988727311781      2.09944391022827     -0.10276794743562
  C   5.15404429371479      1.21828133710418     -0.25199023879951
  C   5.57545178649488     -0.05106896700549     -0.29767654842718
  N   4.89916695199604     -1.20125033233175     -0.23306304524293
  C   3.68449243123208      1.38124776507254     -0.15273539159117
  O   3.08848592355957      2.42626389501873     -0.12263855886635
  H   2.35291816771784     -2.81154884026193     -0.72749352186981
  H   2.31834951633096     -2.57525358804452      1.00435371637837
  H   2.68574657217999     -5.02608495259089      0.58632559251476
  H   6.00346762131792     -4.18377873408144      0.39247373031176
