28
Coordinates from ORCA-job 6691optt
  Br  1.33758429103597      0.97572655533266      0.70074203483092
  C   3.12534274653244      0.53638837901939      0.26429691529995
  C   3.43382331208245     -0.61658221720232     -0.39092059740786
  C   2.32546863457560     -1.49582083072938     -0.92588258951940
  C   1.79991142191555     -2.63779037347727     -0.06109365088406
  N   0.56377792174230     -2.85132353755536      0.13284070970948
  N   2.70544499018531     -3.58180363796338      0.39213774204817
  C   3.97910518910964     -3.27236795818104      1.02000408130324
  C   5.19391962631791     -3.38578225486837      0.08581977907332
  C   5.11517840160067     -2.41940531279529     -1.11550620741432
  C   4.80824768033284     -1.01575009721306     -0.65278436238289
  C   5.84867024020934     -0.20644413018105     -0.37895656140394
  S   5.77646063749765      1.34783637322663      0.32973857620066
  C   4.05792476078653      1.57778455128183      0.71248241075700
  O   3.75027843388868      2.58997322146456      1.28463486613056
  C   5.38362716579702     -4.75852466794381     -0.37834021635935
  C   5.53597790333516     -5.87925343127228     -0.77241503651841
  H   2.65927557238014     -1.94641703003126     -1.85997580663693
  H   1.47552400520057     -0.86454841915306     -1.16490411900657
  H   -0.01383775200232     -2.14761226538762     -0.31668894615578
  H   2.20692201962642     -4.34591818369114      0.82474069592489
  H   4.12090047222091     -3.97953194323504      1.83634032545196
  H   3.96874923451345     -2.27668453967691      1.46914312118356
  H   6.06757060676202     -3.10202804185580      0.68274345102127
  H   4.37498338905125     -2.80234597809125     -1.81450014561434
  H   6.07314711854000     -2.43513890085605     -1.63488603220222
  H   6.86211373949965     -0.52707969022328     -0.59191626061190
  H   5.66990823726280     -6.87555563874100     -1.12089417681703
