29
Coordinates from ORCA-job 6696optt
  Br  2.67768356196095     -0.09861547279526     -3.17615960169155
  C   2.83828750380823      0.34645355036814     -1.35080506112080
  C   3.48509474871123      1.47637445507618     -0.95813043010466
  C   3.51209307959278      2.74755144855829     -1.77012583561528
  C   2.05390914923993      3.21416871932462     -1.69357832364276
  N   1.37119417242532      3.27630492601957     -2.75781225350710
  N   1.52361133383306      3.37520490894810     -0.39888519858867
  C   0.39166486183973      2.51263634966510     -0.02389503459298
  C   0.40338915254096      2.13288815398254      1.48322254204071
  C   0.01609466700318      0.68462481281111      1.75537118347468
  N   -1.12483929935494      0.29785183535498      2.13424016253245
  N   0.98309233149090     -0.34183891766615      1.55946462465381
  C   2.05956669755214     -0.07282513673577      0.71070023881807
  N   3.02606781747213      0.70927504311711      1.24902751292313
  C   3.75052618734127      1.62032653467803      0.46828102333073
  N   4.48954075420524      2.54203494906535      0.95177958763905
  N   2.06298570919551     -0.42065360046834     -0.52571337813948
  H   3.76127884990648      2.59434087656795     -2.81552162814112
  H   4.19824756267235      3.46286827053473     -1.31927127795046
  H   0.40829911953928      3.55057727390918     -2.55997870193670
  H   2.23984918276711      3.42839552760429      0.31033532772449
  H   -0.55403701067626      3.01351491386693     -0.23596742113840
  H   0.40725190288758      1.60938385394551     -0.64233247210577
  H   -0.30982766100735      2.75117064067461      2.02526737282766
  H   1.38034960508899      2.35602627886460      1.91070455672772
  H   -1.75503240888587      1.08237733021395      2.27112009911370
  H   0.52133668802080     -1.22441931448385      1.37213855765013
  H   3.01634721809370      0.83587534776708      2.25124819361116
  H   4.54597452273552      2.51012644123138      1.96727563520826
