25
Coordinates from ORCA-job 6697optt
  Br  1.09692907156382      0.30542590796218      0.38973212392082
  C   2.93990703402281     -0.03009293291737      0.24201930870216
  C   3.51710584884296     -1.21503860900834      0.49298976104879
  C   2.80897847072007     -2.46319852795774      0.90913727998964
  C   2.91340904325324     -3.51728892259646     -0.16633676738373
  N   1.97250442944928     -4.01708594695866     -0.84430975442301
  N   4.19849437732366     -4.02231781449036     -0.36500322084954
  C   5.37120325319430     -3.57171126020694      0.18781614925971
  C   6.41375117872383     -4.63899109281035      0.42269784952424
  C   6.71765648470139     -5.55341042421908     -0.74085160184023
  O   6.02687578221513     -5.69293591362326     -1.71123034486534
  N   5.69676897848261     -2.38382120960203      0.52877677522550
  C   4.95677129617578     -1.23707616418915      0.28098451048599
  N   5.63039510492823     -0.20646199825593     -0.10158230948372
  C   4.98693274084187      0.97667428688611     -0.37891185894181
  N   5.48918372779606      2.03693879388534     -0.82272229134893
  O   3.59949461999166      1.04615749485935     -0.14369057610563
  H   1.75974158929123     -2.26585031637554      1.10829279510089
  H   3.26125498295351     -2.85264612313901      1.82639534434049
  H   1.07688220039434     -3.61165372796840     -0.58851285423663
  H   4.26080089736730     -4.83672221092800     -0.96678742418312
  H   6.08888926843739     -5.29335569576582      1.24196504886628
  H   7.33544667448465     -4.15658654423960      0.74527051972884
  H   7.65367325450484     -6.12979115879528     -0.63217496321304
  H   6.48694969033989      1.89484011045439     -0.95096349931863
