29
Coordinates from ORCA-job 6699optt
  Br  2.15304812074768      0.19741025992781     -2.75644850484544
  C   2.69286883147768      0.44919706271192     -0.97234799343627
  C   3.38898430723884      1.55598659304117     -0.60456046303107
  C   3.47731163403568      2.81092880660885     -1.42938585236948
  C   2.06752385752700      3.44601611927769     -1.44819188431755
  N   1.45293261437113      3.80066265649265     -2.50067072727979
  N   1.47629084111050      3.57226488715733     -0.21316919048792
  C   0.02178251283282      3.50269903063669     -0.09811026476655
  C   -0.35932823183123      3.05291594703908      1.32624096657680
  N   0.52665701823040      1.98588074922732      1.71522795056237
  C   0.17799713655942      0.83925528341911      2.09219381249732
  N   1.13735553124918     -0.18261631585183      2.26191752933955
  C   2.23609996827579      0.02611747133786      1.38959488005041
  C   3.13149491467674      0.98342443161012      1.69741262178707
  N   3.75722462138249      1.68597175230375      0.71049884348414
  C   2.07682638174173     -0.44518893168743      0.01242056350072
  O   1.34882187049149     -1.38009297736456     -0.27148603173529
  H   3.77733955354138      2.60452370344133     -2.45299473195332
  H   4.19257229712657      3.51024107836851     -0.98990713977849
  H   2.00261226531132      3.61614388742761     -3.33331045667632
  H   1.90282809162516      3.03236624897057      0.52470958307870
  H   -0.43191894281209      4.46858145440388     -0.32056766829891
  H   -0.35885415600897      2.78401001456349     -0.83094446030979
  H   -1.41962152547749      2.77634456478627      1.34294499750915
  H   -0.21188245845527      3.88709082119416      2.01709013715115
  H   -0.85058601489281      0.53108004109772      2.30008757667054
  H   0.73081474220764     -1.10536706915967      2.17406083626643
  H   3.26654396725995      1.34116498220889      2.70796294944418
  H   4.33426025045724      2.47098744680968      0.96573212136769
