29
Coordinates from ORCA-job 6700optt
  Br  2.73953204058744     -0.15891407576148      3.20910576584148
  C   3.15057087477417      0.41324142773531      1.45855640525719
  C   3.69638945114628      1.61158087265917      1.17037578551812
  C   3.42542360313631      2.83482558266224      2.01759539517328
  C   1.90043244429180      2.98628221915806      1.87620100941379
  N   1.05943553332801      2.81131589276665      2.80863797926840
  N   1.43628259585325      3.12165937065807      0.56644683864908
  C   0.44959079644580      2.14033935554586      0.10195063970095
  C   0.48339289499879      2.03379701726398     -1.41553560389955
  N   0.42211424062866      3.04127669445757     -2.18500592011532
  N   0.51628380192588      0.77367251818540     -2.01250033557872
  C   1.29467411668655     -0.37220765130178     -1.54942449117773
  C   2.53641876130526      0.06025079223429     -0.79711394139951
  N   2.67620579780212     -0.42209091217854      0.48360057438635
  C   3.31312951951531      1.08082795348414     -1.20305046094007
  C   4.06432079545709      1.87636414047691     -0.24030174872558
  O   4.75668746383169      2.82940455583126     -0.55404621343380
  H   3.97136763279907      3.68018009695143      1.60000520264389
  H   3.68741121301995      2.72038821421030      3.06742146720717
  H   1.52716915580038      2.65912194471059      3.69722305396379
  H   2.15952433125155      3.30309482608157     -0.11419701269073
  H   -0.55545910404920      2.44745835797900      0.39758439167116
  H   0.62342640472773      1.17004526346908      0.57764314864305
  H   0.29779988545054      3.89957601832504     -1.65261865567319
  H   0.50677333018629      0.88726488204960     -3.01661418058837
  H   1.54224217573892     -0.96781370221076     -2.42748684634917
  H   0.69192612773843     -1.00701296480974     -0.89341478508880
  H   2.15161117964881     -1.23307292002528      0.77258301422668
  H   3.18832293597308      1.50214422939205     -2.19262047590383
