28
Coordinates from ORCA-job 6705optt
  Br  3.28808103932987     -1.11155145985572     -2.82602035979671
  C   3.53271495423637     -0.07523817123806     -1.27924642552028
  C   3.20552937691418      1.22267373815401     -1.22637488633195
  C   2.37538774870138      2.02781524266368     -2.19445906796897
  C   1.06254699251968      2.19490979477499     -1.42016011157790
  N   0.19203373763032      1.28422554694160     -1.28728687732244
  N   0.99923340023332      3.32881345176463     -0.63450387624952
  C   0.43670826164186      3.29865896132711      0.70563048660664
  C   1.45766577852183      3.95705780714024      1.63587967332006
  O   1.46065610253329      5.16221830961432      1.76256916679674
  N   2.44605047544020      3.20054579263175      2.21900779268233
  C   2.59612763125386      1.76278354890986      2.32200377974151
  C   3.25897951257827      1.09109836433332      1.12828029604636
  N   3.36515031137913      1.85244084593528      0.00642559573350
  N   3.54647174480166     -0.15152956098833      1.15687661871520
  C   3.99421500324177     -0.75271511079698     -0.04351911702823
  N   4.64982451611398     -1.83422738022047     -0.08418603955641
  H   2.22781513124569      1.48303726825168     -3.12187149699509
  H   2.83991470096749      2.99193135103340     -2.41395063443237
  H   0.43699106143624      0.45655684442201     -1.82631597383848
  H   1.47128528000816      4.16889961751399     -0.92723810839246
  H   0.22565445116836      2.25582407770069      0.93777116932382
  H   -0.48702580345898      3.87064080829166      0.78717698615415
  H   3.09361004355894      3.77028205246580      2.74486378827941
  H   3.15925420070628      1.52849361141576      3.22281441636576
  H   1.62184129082897      1.28185591712833      2.42893337152375
  H   3.06281996690967      2.80918365445248      0.08186503894120
  H   4.81846308955817     -2.16268492376707      0.86603479478037
