22
Coordinates from ORCA-job 6710optt
  Br  0.96814653327885      0.00181354953533      0.02584600706791
  C   2.82346498011928     -0.18010739852373     -0.08730315391657
  C   3.48998295480024     -1.29718799185027      0.27235964336614
  C   2.90120487104358     -2.60349716975335      0.70639018133331
  C   3.19485495264922     -3.56531247459220     -0.42925919002014
  N   2.41525956074399     -3.83877933439364     -1.37288702766584
  N   4.49990917375325     -4.14327310560091     -0.43450215038563
  C   4.69613814628001     -5.44971936027305     -1.00976084574943
  O   3.81302275109938     -6.19757427121721     -1.26153974798598
  C   5.62607310617650     -3.64479568673412      0.22546628479211
  O   6.56907573108666     -4.32332089178986      0.48729403458083
  O   5.64712170744100     -2.34126999654059      0.60802602367248
  C   4.91440547605380     -1.29719019788514      0.10262049116636
  N   5.59323625617740     -0.32514154731374     -0.37394445924677
  N   4.90514072922380      0.75697278473930     -0.72815114684047
  C   3.54468546850303      0.98554096124300     -0.62187830096933
  O   3.05600736473926      2.03790478928223     -0.95565945585277
  H   1.82682882568347     -2.52731856587543      0.84336586655775
  H   3.36147658892339     -2.93699403178204      1.63798243792187
  H   1.50942448315922     -3.39283625798320     -1.24287011869453
  H   5.75995333454624     -5.65692590068845     -1.15715995555042
  H   5.45758700451839      1.51701209799709     -1.10143541758090
