26
Coordinates from ORCA-job 6714optt
  Br  0.79131834951193     -0.47585342359617      0.64210389231238
  C   2.60838121103814     -0.26607189302772      0.15459147351550
  C   3.44577656901900     -1.33475046238079      0.19850262651895
  C   3.08674173474300     -2.67378320681621      0.56380864044559
  C   4.03169382751453     -3.62167535034534      0.54537970862913
  N   5.34913482573086     -3.35920393204696      0.19346099450387
  N   5.68038689001526     -2.19843645518380     -0.12670515294463
  N   4.78893475044876     -1.18873939995688     -0.13959951220828
  C   5.36422971146875      0.08600711296249     -0.54172762726627
  N   6.58957978169067      0.24178667396326     -0.82213217377654
  C   4.40847333913527      1.15340709194209     -0.59968132572501
  C   3.08928326772537      1.02656995406721     -0.26882959411739
  N   2.21544628041431      2.07022379192543     -0.31373153255475
  C   2.56332330808023      3.37554939237857     -0.80712398349760
  C   2.67668735057864      3.40292598587699     -2.34228653209927
  C   3.10016325319950      4.71680002383219     -2.81573588045370
  N   3.43006178670104      5.76101048801840     -3.15182872283754
  H   2.06583250678004     -2.89148739781699      0.83742565011346
  H   3.83565941251750     -4.65260486524812      0.80045473619230
  H   7.11913003824267     -0.61929661839205     -0.73380236956680
  H   4.82583564079503      2.09698857799498     -0.91577659595205
  H   1.25151432899374      1.88015798161160     -0.10129664103146
  H   3.50338266424695      3.70707825197778     -0.36225379073138
  H   1.79497796245912      4.07727937219066     -0.48723552720870
  H   1.71233395965544      3.15987256334624     -2.78993680205054
  H   3.39671724929419      2.65624574272312     -2.68004395820925
