22
Coordinates from ORCA-job 6715optt
  Br  1.61424030143715      0.70106337164144      0.49216008332175
  C   3.44566476548104      0.36092103807152      0.32798078176210
  C   4.36072543153841      1.32699162328735      0.13069424745604
  C   5.77735519158603      1.04104368984841     -0.02889744652232
  C   6.70772997582996      1.99826181433496     -0.28691552232861
  N   6.60884273154085      3.35828684355285     -0.18079399087548
  N   5.78722285719626      4.04467198067866      0.70917289178681
  N   4.62003899162430      3.70109585133670      0.82664624009818
  C   4.00099708250286      2.75515031627161     -0.07765133175684
  O   3.24240700371134      3.17481075698807     -0.89131837894888
  C   6.18411183345148     -0.35935305280795      0.01478538581927
  N   7.53862141773897     -0.67209314242525     -0.17249115665250
  C   7.98893079620958     -1.78828423006835     -0.83684939010248
  O   9.14027539328835     -2.12689257071357     -0.84748033046292
  C   5.27931930801162     -1.32892133774632      0.24515471716326
  C   3.84970136423665     -1.06772348159355      0.41154922612324
  O   3.05392072798331     -1.95949189868993      0.60062116835769
  H   7.69466583252147      1.68845882541463     -0.60657288664073
  H   7.47377590119227      3.86665869185373     -0.28412882450745
  H   8.24718772608695     -0.16131071824101      0.33557031276564
  H   7.18982042792753     -2.31523353847997     -1.37779681750505
  H   5.57944493890359     -2.36211083251404      0.35756102164928
