22
Coordinates from ORCA-job 6719optt
  Br  1.07024048939583     -0.35475022693810     -0.03582997113642
  C   2.89170825791613      0.04204132928247     -0.04000748790708
  C   3.46511188679450      1.26565451872424     -0.04194700387584
  C   4.91809084742708      1.27651106441082     -0.04484449107125
  C   5.54543642222018     -0.03101884392232     -0.04565872880358
  N   4.94805289989380     -1.15358001779569     -0.04379367225798
  O   3.56596850677710     -1.12481565892393     -0.04073661094744
  C   5.66621105565819      2.39689626805171     -0.04665476560388
  C   5.09349232350149      3.73372728175484     -0.04574040099205
  N   5.74903309129019      4.82258779348214     -0.04707853138932
  C   3.58969105778487      3.80599271144869     -0.04298531199469
  N   3.04471374641405      4.96696266211727     -0.04236494594469
  C   1.65956582176281      5.07298042409829     -0.04014763063919
  N   0.98130126591113      6.14086884937446     -0.03939776138052
  N   0.97312447386729      3.85421820521018     -0.03868945480493
  N   1.50766901465961      2.66319486669397     -0.03923372979460
  C   2.80307649816295      2.57405394137583     -0.04132219756912
  H   6.62712248165279     -0.10792163660387     -0.04802302157390
  H   6.74752377741687      2.31749718969029     -0.04880723889926
  H   6.75240619475835      4.63520991861788     -0.04898435254473
  H   1.60821919193701      6.94027967219527     -0.04067529381028
  H   -0.03675930520222      3.89040968765553     -0.03707739705923
