25
Coordinates from ORCA-job 6732optt
  Br  1.06591936702838      0.15190152775277      0.07114225203487
  C   2.95301185346394      0.03686148336752      0.07574389344216
  C   3.64789493385313     -1.15688678309899      0.16034533598385
  C   2.99272144457230     -2.50388438894566      0.27619631621990
  C   3.67931775436977     -3.53325118198356     -0.59649570469508
  N   3.12596892983690     -4.44326232751316     -1.26757643295561
  O   5.02228517899821     -3.44154059074485     -0.64314126153808
  C   5.68177213842384     -2.52704997122000      0.22921158648834
  C   5.05858643474760     -1.15619552031576      0.17531789648628
  C   5.79170155981064      0.02556022662120      0.13488196367596
  C   7.26966120753124      0.10796649491817      0.21425333055856
  O   7.98679940971904     -0.78204649252265      0.59495505900911
  C   5.07606371430795      1.22731782496493      0.03411645697239
  C   3.67584721038421      1.21712633205480      0.00618768472755
  N   3.30674439968291      2.53371098943415     -0.07962434612238
  C   4.46433439970273      3.25899623948941     -0.09996573096496
  N   5.53648951515139      2.52709707728766     -0.03268697831091
  H   1.93633155240214     -2.46887272740227      0.02579480766794
  H   3.07205698780917     -2.84538808557532      1.31561997109956
  H   2.11607379179212     -4.39250801638323     -1.17837211073613
  H   6.71670019366891     -2.51282968252422     -0.08852748692818
  H   5.65351043624319     -2.91387033152502      1.25452615681337
  H   7.68335940851961      1.08222160536143     -0.09012273837954
  H   2.36392350847800      2.88482646579798     -0.11366502018001
  H   4.45092466950259      4.33599983270467     -0.16611490036895
