24
Coordinates from ORCA-job 6733optt
  Br  1.18891611490651     -0.58204771929318      0.12354190218619
  C   2.28357280607472      0.83010362310577      0.67569310164441
  C   3.13611264295050      1.51530113409776     -0.18746611095035
  C   2.76244436879421      1.70579310533454     -1.64744102490626
  C   1.32384308581594      2.20945613281968     -1.83154080758992
  N   0.39540329067886      1.61145539210910     -2.42957868984243
  O   1.11108768437935      3.45002769885644     -1.29421649460284
  C   -0.23391980432319      3.77920319297289     -0.88034450930329
  C   -0.25750692015535      3.38105847531451      0.57404353431441
  N   0.09664812426794      2.15853713328110      0.83766032584755
  C   0.79435616750768      2.24591705565079      1.99947025085235
  N   0.72983120215819      3.44550598186660      2.55814741025696
  N   0.04940267094000      4.15398782202906      1.64617469117916
  C   2.11540237158867      1.54018147159165      1.88233602299181
  N   3.17148037750287      2.13627513454912      2.40968312628729
  C   4.22474480303804      2.30949108004217      1.62680722543172
  N   4.15828904369182      2.22075479430169      0.30359948228686
  H   2.86070020117876      0.78124174438149     -2.21579668740128
  H   3.45982608751370      2.44105584714401     -2.04985282850468
  H   0.69192287883124      0.70131510573352     -2.76438258557502
  H   -0.95656879795575      3.21969949498830     -1.46737148102152
  H   -0.35373254361961      4.84897744102649     -1.03001143541899
  H   -0.09145266954462      5.14106027988091      1.78872517305324
  H   5.14119681377951      2.67364857821554      2.07412040878461
