27
Coordinates from ORCA-job 6735optt
  Br  1.03271937488720      0.00790965510360      0.02460294134272
  C   2.90116833519166     -0.08659645009480      0.19138603572192
  C   3.60869452471085     -1.21291429235617      0.36567353908402
  C   2.99570082211567     -2.58004301806727      0.49458044879011
  C   3.34267249759995     -3.52303579434629     -0.64713333594948
  N   2.56223304819007     -3.89012538312559     -1.56058096249630
  O   4.57827320396473     -4.08741623902820     -0.59659743554398
  C   5.72219558942867     -3.23957114622710     -0.61114480321727
  C   5.85371183383904     -2.32492507019365      0.61399015249685
  C   5.05281112077589     -1.06791403544549      0.45353486636476
  C   5.61109551979974      0.15542997170355      0.33908658401760
  N   7.00489464947619      0.38247129954543      0.38219142977517
  C   7.90001428847588     -0.12001435272307     -0.52105163670691
  O   7.63792024023101     -0.92086655693586     -1.38000472815790
  C   4.79351977065440      1.35289689257565      0.13130834591721
  N   5.14606941211543      2.55234170811005     -0.02273672851033
  O   3.43301288503927      1.13445540689640      0.10875414093906
  H   1.91458102984629     -2.49402617970645      0.55141531331164
  H   3.33667157268185     -3.04133763011650      1.42436958919896
  H   1.64712741999106     -3.46016853270364     -1.44762553034851
  H   5.73462686359140     -2.64443930771766     -1.52611579679070
  H   6.56661440300142     -3.92393437120339     -0.63838401142610
  H   6.90312252860798     -2.08730356532782      0.75887267502532
  H   5.51778066306572     -2.87510261322041      1.49632719631174
  H   7.34290223950942      1.09313629276752      1.01442437030712
  H   8.91283303291509      0.28163755397519     -0.36395137204849
  H   6.15603313029404      2.64145575786197     -0.03419128740823
