26
Coordinates from ORCA-job 6740optt
  Br  3.70175475309867     -0.76455462560327     -2.49642265014403
  C   3.20964730348005      0.00899142680488     -0.86049379498465
  C   1.96261622638215      0.45372127180290     -0.67893950614746
  C   0.82324811993427      0.53705191796565     -1.65292949926823
  C   -0.06574689778294      1.69345969802871     -1.24335922176464
  N   -1.29013298462239      1.68530614990866     -0.96727637769071
  O   0.68245314989719      2.81790881448463     -1.15950304287699
  C   0.31581871693321      3.82146029103164     -0.21675448257241
  C   1.33309827914595      3.84001929062473      0.92962787182487
  C   0.99014689273064      2.93173580722893      2.09318532830212
  O   0.03259221393772      3.04672366257921      2.77605475627280
  O   1.95029797324584      1.96945632066534      2.44863303857986
  C   2.51203473672061      1.28372637609924      1.44061907672082
  O   1.58149446353372      0.96444709513686      0.52950355022972
  C   3.79286730008990      0.92586301328380      1.34097999861518
  C   4.23747233241466      0.13189300645691      0.19433108272376
  N   5.39242634576461     -0.37516146608963      0.02768886634480
  H   0.25066670455883     -0.39140024148392     -1.67340127798512
  H   1.22619726828942      0.70691640722020     -2.65192937517064
  H   -1.68838237967637      0.75643517498919     -1.05723881318404
  H   -0.69673504630612      3.65297502163637      0.14652478897268
  H   0.35324628019882      4.77239776684566     -0.74421983513268
  H   2.33084368033746      3.64193124299590      0.53797064477898
  H   1.33291080045950      4.84078866894154      1.36660188099687
  H   4.49325084089072      1.22476206678549      2.10650927334486
  H   5.99291292634387     -0.18685415833968      0.82823771921430
