25
Coordinates from ORCA-job 6742optt
  Br  0.98536055686956      0.25294592586806     -0.41283172348765
  C   2.85348388191049      0.11791816001221     -0.24829163623891
  C   3.51775417760093     -1.03350374376804     -0.50945689801224
  C   2.80304297951415     -2.26759998361950     -1.00173658240486
  C   2.17351698370942     -3.12674241052455      0.08768621945239
  N   0.94369881972809     -3.27794723843384      0.28757621732318
  O   3.01353341036324     -3.87840590048110      0.83861300264093
  C   4.29974457341422     -3.41385976953793      1.21273355990140
  C   5.37588552715120     -3.52428961222432      0.14161959984153
  N   5.59665649596707     -2.32293733406702     -0.67701863782328
  C   6.69806661134686     -2.34791741551531     -1.50249399626656
  O   7.37683883650988     -3.32912444973848     -1.65324984129594
  C   4.97506487438276     -1.09128465097657     -0.39022966778268
  N   5.74914858603713     -0.11354528781766     -0.09610086504670
  S   5.23841100249254      1.41173868472535      0.20342708917018
  C   3.47465264074926      1.39838606643607      0.14653109454782
  O   2.87342670669382      2.40712596317138      0.40045317149527
  H   3.50115204822140     -2.88534038916648     -1.56527459771903
  H   2.00714331906876     -1.96089200551929     -1.67611739877887
  H   0.39604719893395     -2.72272320289482     -0.36270453686000
  H   4.58511944552320     -4.08392146172016      2.02078637552241
  H   4.23972179508063     -2.40875751692332      1.64021281163747
  H   5.15895038823507     -4.37322146233789     -0.50867841535049
  H   6.32836079505934     -3.73992694060364      0.63033502365746
  H   6.87221834543691     -1.39417402434308     -2.01778936812282
