24
Coordinates from ORCA-job 6752optt
  Br  0.96979420959498     -0.02670687681865     -0.08718994824475
  C   2.84834891115376      0.00091281470590     -0.03293666337535
  C   3.52986231021953      1.16714157348871     -0.02084889107391
  C   2.88277965866978      2.51854352176010     -0.04594196187820
  C   3.72543706388909      3.53789860335763      0.65186396566854
  N   3.40786097383222      4.43800276881881      1.45241020556194
  O   5.05539446020707      3.49859495496278      0.27542405009956
  C   5.68706955266484      2.36576665913131     -0.06464300373186
  O   6.84080645450874      2.37462813850474     -0.34567946934434
  N   4.92541709279879      1.17438048272112     -0.03258560476868
  C   5.59369840414513     -0.03726680069278     -0.06279523739496
  C   4.94673948429656     -1.20894074473759     -0.04658482109513
  C   5.93897683109588     -2.32513426346928     -0.05965013686810
  O   7.20210570680825     -1.67345910568377      0.02752419205597
  C   7.08121198654445     -0.26935301056995     -0.10420540721590
  C   3.50454952366838     -1.32362663877775     -0.03407717852703
  O   2.90397806897742     -2.37743406699859     -0.03098382365383
  H   1.89817260706499      2.46973711206537      0.40828823496397
  H   2.75434471510269      2.83547122455373     -1.08755426486491
  H   2.41010755597699      4.42640768573819      1.64690687713963
  H   5.87141835389775     -2.91753199939086     -0.97736452107632
  H   5.81396897794730     -2.99957494139849      0.78999563302643
  H   7.51117140006228      0.07794961026656     -1.04668921591385
  H   7.61078569687309      0.22859329846276      0.70931699051109
