24
Coordinates from ORCA-job 6755optt
  Br  1.42153671651141      0.52280520504189      0.44088006198963
  C   3.22853407819507      0.11842622471304      0.12357595969186
  C   3.80925086537075     -1.10763134329611      0.08054614786815
  C   5.25641352676685     -1.21904947097618     -0.10948450178552
  C   6.05670608774579     -0.02454352499027     -0.34844978248416
  N   5.65781482989112      1.18418082109749     -0.36096344100650
  S   4.08440304901595      1.60449181169178     -0.08716480796670
  C   5.86330325413861     -2.41837767841755     -0.05936200973544
  C   5.11153141619060     -3.64437670290398      0.21568661852069
  O   5.65861107754451     -4.71267416117604      0.35479685966394
  N   3.71585045579675     -3.53955829234588      0.30413322738702
  C   3.12744984912766     -2.40749903052612      0.22915247013779
  O   1.80129483185274     -2.34182979159735      0.25668201528700
  C   1.06373498049400     -3.55395347146967      0.43363226213417
  C   1.05813643422876     -3.99714339084613      1.89155533291705
  C   0.49924671477930     -2.97825678164368      2.77520194171624
  C   0.03619447939293     -2.12789182981809      3.47981789420291
  H   7.11764586400258     -0.18298744219130     -0.53171880061256
  H   6.93274126968998     -2.51827733548780     -0.18959803076282
  H   1.48889453607052     -4.33396404316685     -0.19506897268556
  H   0.05755387650648     -3.30481269607569      0.10480673634943
  H   2.07407197520717     -4.24894913230224      2.19761235133850
  H   0.46357680180910     -4.91104881811830      1.96238191293928
  H   -0.37249697032881     -1.38007912519482      4.11634855489560
