20
Coordinates from ORCA-job 6758optt
  Br  1.08627855486084     -0.18428416592786     -0.13953851184799
  C   2.96857727136834     -0.09225994794920     -0.12013966748975
  C   3.60058890238760      1.15730654473230     -0.10305030666957
  C   4.97478589703472      1.27524008001196     -0.06937800306226
  C   5.46237925255361      2.70240273516872     -0.01385744438513
  N   4.31430190253324      3.56293569234871     -0.32112128458791
  S   2.88714216296413      2.77629630715252      0.02606595792502
  O   2.54567266219635      2.98309707190920      1.39502511080257
  O   1.95351151886792      3.07640202792722     -1.01081597623446
  C   5.69988514127440      0.09191389125027     -0.05543148725101
  N   7.04822604333076     -0.18645324068158     -0.02277718589134
  C   7.10946807257988     -1.48607455395903     -0.03631221996555
  N   5.88452374247132     -2.09567199025773     -0.07909771828386
  C   4.95009365882901     -1.09665323750814     -0.09064963035106
  N   3.63040228730983     -1.22698829852109     -0.12574828103783
  H   6.26508112021177      2.87973290463402     -0.72719884764638
  H   5.84318252058448      2.92284833164236      0.98492705485336
  H   4.28338290335209      3.84667505803482     -1.29408085119528
  H   8.02077306074175     -2.06382663765141     -0.01728851058231
  H   5.69174332454790     -3.08363857235608     -0.09653219709927
