26
Coordinates from ORCA-job 6762optt
  Br  1.14610217840196      0.45367768777450     -0.34097828221566
  C   3.03440894904098      0.26639376719618     -0.33675465205967
  C   3.63308112340727     -0.91360948079100     -0.65695786732301
  C   2.78352900768778     -2.07761236262454     -1.11741443341083
  C   2.29763069486091     -2.99895499026529      0.00486251558217
  N   3.32519154396202     -3.94112358369602      0.46569761976092
  S   4.45500042595155     -3.45656816875531      1.56044579754721
  O   4.06020229982546     -2.18574912784768      2.09400997915744
  O   4.70630085280256     -4.58221538418982      2.41007985051074
  C   5.92467182934753     -3.19877644022269      0.58650085138069
  C   5.71388188145956     -2.45091816052616     -0.73091938108019
  C   5.07453056731682     -1.08611733838508     -0.57678753255594
  C   5.89989418768356     -0.05899476360159     -0.29833377306515
  S   5.45599002117837      1.55040504120572      0.05445322730871
  C   3.68198133273620      1.52376831356764      0.04895897810328
  O   3.11409249697595      2.54726475812828      0.32629843509900
  H   3.31990201011130     -2.67310065232445     -1.85347911319398
  H   1.90341396822108     -1.67900824028916     -1.61558826396022
  H   1.48478508683877     -3.61146779742694     -0.38269430275894
  H   1.91044101741294     -2.40458771542339      0.83421479820374
  H   2.98572625912779     -4.85756796589376      0.72663996107120
  H   6.33761367642221     -4.19132114753858      0.40991323392939
  H   6.58821748805731     -2.65017937664691      1.25782801783508
  H   5.15044680642733     -3.09260386651686     -1.40333255180527
  H   6.70067087750747     -2.32523733721058     -1.17898685974545
  H   6.97229341723528     -0.21579566769650     -0.26067625231525
