27
Coordinates from ORCA-job 6765optt
  Br  3.34088045007453      0.46004511470239     -0.08165802690150
  C   3.68666621748580     -1.99224320166834      1.26563345723864
  C   4.26478476297137     -0.85327359922618      0.90349502373317
  C   5.68805379281073     -0.55791807530359      1.33259465805523
  C   5.95420634807829     -0.89014868732001      2.83654137039247
  O   4.64812844656749     -4.01594292410038      2.17516655182132
  C   4.52682693091231     -2.82733058547179      2.21549085434268
  C   4.98596576366320     -1.92245282116758      3.38738438194336
  N   3.76114513292974     -1.34339568973686      3.93634383717594
  C   3.13525535880398     -2.40775511770964      4.56421395063462
  C   4.30245225770209     -3.15963594796559      5.18690517724392
  O   5.45324045075843     -2.68416442480539      4.46198563907604
  C   1.84463631583466     -2.77711171375658      4.45426740422648
  C   0.89430109126784     -2.28464564653232      3.40668183088414
  N   -0.36305130050489     -2.39045644293228      3.38742907975005
  N   1.63481901379233     -1.68334290949114      2.35630026223182
  C   2.28819872803454     -2.41501732374740      1.56087644657735
  H   5.91952798673600      0.48712275631092      1.14417137073133
  H   6.36062581410731     -1.14463710464977      0.70380605297591
  H   6.96464257860590     -1.28142792883550      2.94907594166970
  H   5.86975752767478      0.00953290710161      3.44534364471581
  H   3.17928871891134     -0.79669058713296      3.31427266877200
  H   4.19892848912196     -4.23544123792680      5.05025719166414
  H   4.44615781569446     -2.92308621509742      6.24102386072445
  H   1.47498134912506     -3.58375684380225      5.07567985166239
  H   -0.69889030485057     -2.79813243724054      4.25808432955768
  H   2.07147026369124     -3.47769331249459      1.42063318910080
