22
Coordinates from ORCA-job 6766optt
  Br  0.10338458627830      0.42645236970855      0.55865281141837
  C   1.71458593023712      1.33894501012345      0.89206733469883
  C   2.77134566691813      1.48172686278920     -0.13321501147516
  C   4.07283383259363      1.62176572975047      0.53020927664153
  C   4.07839012271837      2.30877479744333      1.67451283149277
  O   2.94216948078304      2.81708542280659      2.24156026114110
  C   1.76975502875224      2.29306669334952      1.85688033793518
  C   0.56783882478597      3.19836970435844      1.88399553015935
  N   0.70493653260510      4.04381521594148      0.93459579083080
  C   -0.51573743808504      4.05350868019814      0.26125142155231
  O   -1.52880580403251      3.64765509655018      1.11907419633735
  C   -0.90353223123905      2.97157237821488      2.14917029218127
  O   -1.47032782710980      2.42389474777428      3.03209564217721
  C   -0.44901471647124      3.72911569072893     -1.04692481437721
  C   0.91388200137580      3.44483853760517     -1.54715996603673
  C   1.27798941006846      2.16638994055683     -1.74559070259330
  N   2.58366472945167      1.78390770231685     -1.36287888765848
  H   4.99737430291813      1.32249608778719      0.05888043142352
  H   4.95594656171604      2.58702942210894      2.23672613201051
  H   -1.33607804895010      3.33556309899230     -1.52825129991818
  H   1.69344899927100      4.13021507874276     -1.24395140464802
  H   0.56495005541472      1.39681173215251     -2.02070020329301
