25
Coordinates from ORCA-job 6771optt
  Br  -0.48924848261413      0.19141012308282     -0.40561758262341
  C   1.11178225836886      0.09112375065390     -1.40393539961622
  C   2.02712840537988     -0.85809187728364     -1.11670251566336
  C   3.38916655860904     -0.81558406427540     -1.76323652019864
  C   3.24857888130234     -0.52470643830292     -3.24381583826208
  O   2.22330207488060      0.42028017512077     -3.53301236561820
  C   1.06652983357319      0.45639997974073     -2.82306412321833
  C   -0.07023232294171      0.30366484753082     -3.53714276089613
  C   -0.02048064746476     -0.77912481210021     -4.57640112366538
  N   -0.53866843083820     -0.85279760052787     -5.71960141477772
  N   0.69614865767030     -1.92524796983173     -4.05457366007895
  C   0.42190676718046     -2.28776826712751     -2.88904690602736
  O   1.17274239765891     -3.23137013820688     -2.22735710709975
  C   1.41264276044305     -3.04089957645722     -0.88246198006957
  N   1.77249292799173     -1.97608579165086     -0.31510544351996
  C   4.51778241275209      0.02777150631809     -3.85576136846018
  O   5.60606098358815     -0.23968459198007     -3.43699431703827
  H   3.90287324969183     -1.76478121561574     -1.62903812384451
  H   3.99253598689684     -0.04682424431015     -1.27703902405105
  H   2.99896031040101     -1.44655541949652     -3.78443097301250
  H   -1.03246819584278      0.48533905276994     -3.08110741896000
  H   -0.96970193549189      0.03643310097702     -5.96413588408115
  H   -0.40868146987344     -1.92132519599769     -2.28179819877869
  H   1.31595477600006     -3.96792507911428     -0.32960937195925
  H   4.36289224267852      0.68634974608460     -4.72901057847930
