23
Coordinates from ORCA-job 6775optt
  Br  4.89635916971479     -1.56590877834612      2.28856102551813
  C   5.50217446377063     -0.51315046473777      0.92591761996743
  C   6.45420554671034     -0.01935396845661      0.22414472356364
  C   5.02139084717320      0.36779437397909     -0.19418955008167
  C   4.56721040180089     -0.27880264965711     -1.41378173039615
  O   3.77507787183192      0.20074678564236     -2.24753368814754
  C   2.97100836132472      1.36418822696519     -2.13914401739680
  C   3.64669786012227      2.48218119014602     -2.47143213098272
  N   5.02071273308419      2.51169630962209     -2.68610941782725
  C   5.59532891320560      3.61668584909614     -2.92915149307957
  C   7.06934589976955      3.73125464919300     -3.11347518239837
  O   7.57193810100380      4.64413613126725     -3.68623249488317
  O   7.89225112271414      2.73641222088989     -2.62880335793865
  C   7.52293768321404      1.90677326752672     -1.63868205710725
  C   8.26727115458486      0.84629256077369     -1.31720672479138
  C   7.87819791690074     -0.04151527641010     -0.22756583309403
  O   8.61264736937465     -0.85556289183187      0.27720097742423
  H   4.62572643515568      1.35931028200830      0.00214257743355
  H   4.93897472206912     -1.27351995510822     -1.65405513770837
  H   3.09570071306495      3.41876000750672     -2.50256969594365
  H   5.07010581981396      4.56442762069360     -3.06506799342916
  H   6.63209981621278      2.17443510325964     -1.09384305501650
  H   9.19163707738311      0.62271940597806     -1.83212336368473
