25
Coordinates from ORCA-job 6781optt
  Br  5.98642741495518     -3.41806279420053      1.29523858100018
  C   5.40933001537157     -1.79911529238427      0.46002755411089
  C   6.26848572335018     -0.60864803794666      0.46128978970469
  C   6.17163310708169      0.36499249151362     -0.46965791995184
  C   5.74283361648282      0.09446339233731     -1.89422235894207
  O   4.69077907105507     -0.31293782458355     -2.29061765547287
  C   4.14924579512503     -1.83706914511467      0.06549768477210
  N   3.01615337699372     -1.95858040254364     -0.32698870044038
  C   7.08802909626340      0.10674646029012     -2.56773350064377
  C   7.68959705092184     -1.09245123948897     -2.44734155894716
  C   8.87347579765936     -1.12053547508622     -1.60401389256504
  C   8.70208340503276     -1.83784480495746     -0.49385496823986
  O   9.31888835998133     -1.51887095082922      0.69385005006674
  C   8.52700053954431     -0.90886425245925      1.63060613701650
  C   9.32064211585246     -0.72611854599626      2.88865346034191
  O   8.90501571793803     -0.18349079805122      3.87138808605525
  C   7.25508919025631     -0.49720230632719      1.57578922836459
  H   6.80846872745155      1.23094088231709     -0.33246919875110
  H   2.24779320625098     -1.76321035889623      0.31217585583802
  H   7.68893407964214      0.99747301524486     -2.41527230706876
  H   7.06943651550806     -1.98571973887411     -2.44882883180827
  H   9.56088974439976     -0.28230734483060     -1.60655885424024
  H   7.98424038893852     -2.64735864309398     -0.42110046528123
  H   10.34207728850150     -1.14116430428020      2.83242330641288
  H   6.91245065544234     -0.07106398175876      2.51472047866884
