23
Coordinates from ORCA-job 6782optt
  Br  4.41628235608626      2.38879979430063      2.46676019634155
  C   4.15393665422416      3.25672604027561      0.81313589969570
  C   3.85601473277031      2.56499269820554     -0.33270692876545
  C   4.83487366779970      1.48548341684118     -0.54713797514704
  C   6.06784390416487      2.00345414909881     -0.34118883634834
  O   6.34779394880620      3.26181551598016      0.11820862149690
  C   5.24387540915418      4.15060858333761      0.37725018824224
  N   5.29197311529375      5.34442973036782      0.04428339209800
  C   6.38214047141751      5.87733966605269     -0.65591603809769
  C   6.32994459166583      6.32768654113521     -1.90950286279388
  C   5.18834436139488      6.32034813314134     -2.82900719529801
  C   4.41309778107034      5.30581625530005     -3.21828464341515
  S   4.69877898348180      3.62873345040023     -2.74764477518765
  C   3.45761946587642      3.46465939881349     -1.45546148908370
  N   2.40074829017849      4.13589087196208     -1.31597929212499
  C   7.25994525853660      1.27394407461672     -0.67090527061824
  N   8.19289045218704      0.66415828233912     -0.93841832004937
  H   4.70126526378328      0.51648412327458     -1.00506374397650
  H   7.29827173962267      5.98059449943789     -0.08476120219974
  H   7.22207033788615      6.82023778861893     -2.27936636334157
  H   4.98261096630762      7.27905233645754     -3.30096065042884
  H   3.62602669985335      5.48312467456291     -3.94156064646867
  H   2.25365154843855      4.80061997547983     -2.07577206452957
