21
Coordinates from ORCA-job 6786optt
  Br  1.06842190101766     -0.25673962397616      0.09017548057588
  C   2.91852403520253      0.02825800009735      0.06472845396781
  C   3.53186902818568      1.24515247859941      0.05687759059177
  C   4.98874505786902      1.26393098194200      0.04727371726885
  C   5.67582802212684      0.10143522493885      0.04296960786602
  O   5.08803065056160     -1.07578327054283      0.04556420665627
  C   3.68977085478168     -1.21767531468571      0.05511550996596
  N   3.20279773221493     -2.37430736859455      0.05447305174301
  C   5.70297989873750      2.50622571325056      0.04564824689646
  N   5.14302724185839      3.66338354800184      0.05071664532794
  C   3.77663328539608      3.66444524009292      0.05551857385367
  C   2.93873746534417      2.57566558703936      0.05754366020001
  N   1.57490035142659      2.76009334177695      0.05610430096380
  C   1.09745964425072      3.94286108890203      0.05640520296898
  C   1.92578233857513      5.15661621946951      0.05886713265063
  O   1.53180817932451      6.27942242482969      0.06156992160478
  O   3.28017551358344      4.90969941926193      0.05682814660664
  H   6.75685869415039      0.03893339334342      0.03719725587330
  H   3.92873185781476     -3.08625186987989      0.04681184919656
  H   6.79004492650474      2.47559796725920      0.04030816295905
  H   0.02387332107360      4.09603681887408      0.05430328226260
