23
Coordinates from ORCA-job 6788optt
  Br  1.74215309615895      0.41451287676092      0.33592101774462
  C   3.55185633268738      0.46587057321416      0.85173340814245
  C   3.96145325297555      0.49048354385475      2.12068033157111
  C   5.40457532558563      0.37646209589225      2.54826131687207
  C   6.50403074058089      0.30161660998192      1.47710345403762
  O   6.14125701877487     -0.47444391053727      0.33920133516596
  C   7.10910962494567      1.72289979283446     -1.99726365991976
  N   6.36224881338816      1.07063551273527     -1.38512200492302
  C   5.47201694506445      0.24479544109161     -0.63847193192983
  N   4.42971142184104      1.07970021602796     -0.06731119091999
  C   4.64737874297265      2.38868250173255      0.36948759190211
  C   4.12464049853494      3.01400080600174      1.45683397608754
  O   3.27868961999685      2.63549192490974      2.50085647960037
  C   3.10987917274288      1.33988837475361      2.99567132430425
  O   2.42174836989040      1.14767501539181      3.93224990535265
  C   4.45559303681794      4.40311715171570      1.60459267206749
  N   4.72885060646591      5.51117201009836      1.72014072825900
  H   5.65485300041205      1.19290475254801      3.23324460030772
  H   5.43754790993825     -0.53621012170827      3.15317191664532
  H   7.37372705967163     -0.19011086848357      1.90701537565920
  H   6.81643884187705      1.30050232187803      1.16392252917860
  H   5.02054001010387     -0.48615169824516     -1.30770453512737
  H   5.28070055857291      2.99550507755139     -0.26421464007814
