24
Coordinates from ORCA-job 6789optt
  Br  1.03369497229590     -0.30360366401306      0.01425114378056
  C   2.89131646002709     -0.11318510654808      0.00346270380931
  C   3.49966680765796      1.06616016790997      0.21186196586670
  C   4.95071333829400      1.14413726172131      0.19290448903710
  C   5.63436432758181      0.00785519458275     -0.01496802906336
  O   5.04214456261115     -1.17998568246917     -0.24123218934532
  C   3.66360118564915     -1.33647566450074     -0.25535709670746
  N   3.15401238358025     -2.46004215985455     -0.47345550585480
  C   7.06561541354414     -0.08750220381927     -0.06418503531160
  N   8.20470273115584     -0.18948477241167     -0.13605640565852
  C   5.70223214305847      2.43640174267382      0.42799073086780
  O   6.56775177880787      2.47788500066095      1.25852155741057
  C   5.39499850952981      3.62570163313951     -0.46563611624430
  C   4.01518473425980      4.26572316292935     -0.26710267945774
  N   2.90022600453894      3.34194022325118     -0.49763519121060
  C   2.78865152765361      2.34879830069329      0.50537711504379
  N   2.26772290471446      2.51800457869759      1.63709982830945
  H   3.86435331066414     -3.17439770135672     -0.62002540817783
  H   5.47511425567990      3.28808043548124     -1.50452213684654
  H   6.17729715124102      4.36176857263191     -0.28148540574010
  H   3.91447481408796      5.10443198990736     -0.95494918808509
  H   3.92089612537208      4.65882456114685      0.74513795466603
  H   2.97999967303553      2.91929054068181     -1.41690794643453
  H   1.85426488495905      3.45067358886436      1.70091084534650
