25
Coordinates from ORCA-job 6799optt
  Br  1.64988517885823     -0.23652764658431     -1.34698172815637
  C   3.41772579788498     -0.06884261854108     -0.74319611078936
  C   3.98894175440423      1.05746150117260     -0.28325539471695
  C   5.38676204922975      1.05503959475418      0.09166923693715
  C   6.08145019807725     -0.07804319396507      0.02779582287944
  O   5.51013218468528     -1.22829489978394     -0.38158508952209
  C   4.20111686130139     -1.31936226653409     -0.80204764285341
  O   3.79700692853946     -2.37739704285365     -1.17090584939654
  C   5.74762432566075      2.46542758567188      0.47438092801668
  C   5.72122749978008      3.30130059592657     -0.82336209826283
  C   4.24322468730833      3.27066240026244     -1.19737473202093
  O   3.70724142062264      3.78336275481919     -2.12879259316935
  C   3.51314539160562      2.48267732308277     -0.05956216516002
  C   4.42512761070826      2.89411717179978      1.13513569623230
  N   2.11468228325149      2.70732399914733      0.03672948964550
  C   1.54635858578103      3.94659201177903     -0.00709609805089
  O   0.36376163271143      4.14673047422628      0.08560236809883
  H   7.12288667490020     -0.20607910577852      0.28653628375456
  H   6.65043503564272      2.57158116941266      1.06777908410481
  H   6.33827702932936      2.90754995818658     -1.62941661782328
  H   6.00849224652039      4.33902950570089     -0.64140497590773
  H   4.18034455178611      2.33134919684432      2.03433345021207
  H   4.36468149830137      3.96515057405291      1.33378884861655
  H   1.47929823918304      1.92458747989499      0.08652053098013
  H   2.28217033392656      4.75760347730621     -0.12729064364826
