24
Coordinates from ORCA-job 6800optt
  Br  2.07682646573823      0.53740554874851     -1.94051953990167
  C   3.51372093214845      0.17865999316321     -0.79079000511283
  C   3.80832504029590     -1.02339773650229     -0.27708621177787
  C   4.94180323654754     -1.17213482043539      0.60195432800829
  C   5.70187491974075     -0.11834970308545      0.89198339951880
  O   5.41659997921274      1.09697339855065      0.38682778452822
  C   4.34492213284564      1.34868588763609     -0.44840871121653
  O   4.17149684472539      2.46588792471755     -0.82259577835128
  C   4.94316152098743     -2.63252726091529      0.97599812852841
  O   3.54545980294288     -2.92074080325208      0.95546293061504
  C   3.22637779221602     -2.43436558785095     -0.36832815857078
  C   1.74240281152773     -2.60188212506162     -0.58993871528035
  C   1.26531588334880     -2.63803072733740     -2.02204399583356
  O   1.95277879559340     -2.87266016438384     -2.97452616564317
  C   4.19651369067915     -3.27035982384435     -1.23258515415445
  C   5.40024742300953     -3.36755616425382     -0.29813839995375
  O   6.45629269733032     -3.88397664763987     -0.49803613222238
  H   6.57719983650773     -0.10785079214195      1.52538677493711
  H   5.41958816942450     -2.93666134473322      1.90068736444813
  H   1.18311339254446     -1.84006063937603     -0.04386715325544
  H   1.45525262525694     -3.56646235605402     -0.15361978711725
  H   0.17827698232789     -2.47273498150103     -2.13892938529941
  H   4.45399796278697     -2.83161859782598     -2.19301701551567
  H   3.78245106226159     -4.26424247662142     -1.40687040137763
