24
Coordinates from ORCA-job 6802optt
  Br  6.00684664952119      2.32448798721649     -0.67156969948054
  C   5.69845042800822      0.50972705623074     -0.29092145737902
  C   6.55079530138789     -0.43892307827891     -0.71230396109286
  C   6.07913044509630     -1.85287085708940     -0.46577835793201
  C   5.15685847675271     -1.84216261905373      0.69348694509367
  O   4.11413752520695     -1.00088694582920      0.85854549487774
  C   4.36514876418493      0.26876640148219      0.39090023827864
  O   3.53537621612179      1.10465807352639      0.52190774974602
  C   5.89633634429955     -2.68935469327471      1.39414823297884
  N   6.90332697957140     -2.84304504997556      0.35026305094014
  C   8.14791006095335     -2.24697191124801      0.65790596592960
  C   9.22589526845794     -2.49150294796991     -0.06767039374139
  O   10.26843665370472     -1.59368291338273     -0.03700298088357
  C   9.86672417925786     -0.28738615386480     -0.25052674299848
  N   10.33561107854114      0.67822544128186      0.39144442126232
  C   8.99447229779761     -0.06562049238087     -1.44973186083104
  C   7.67965341602356     -0.12203214676388     -1.62731664986174
  H   5.74194722754022     -2.31871211926005     -1.39467810527560
  H   5.89356217552368     -3.17259096511473      2.35843027270390
  H   8.15624447011386     -1.41744066258577      1.36824820744256
  H   9.32814593806985     -3.31032843143646     -0.76712285477870
  H   10.97225572059205      0.35672934794644      1.12117142422606
  H   9.58280520659669      0.24244706839891     -2.30866629395300
  H   7.32692917667644      0.16247061142573     -2.61716264527153
