25
Coordinates from ORCA-job 6806optt
  Br  5.37084625198842     -1.20761523966647      3.08981066730320
  C   5.40011080407244     -0.65446767644433      1.29697976016370
  C   6.30905915398180      0.21519896936200      0.77701960228541
  C   6.23076578336675      0.53745878239082     -0.61912548925989
  C   5.79200118533802     -0.50045030677077     -1.38230629745321
  O   4.91029564646978     -1.38186744747945     -0.93382483716760
  C   4.45680671898540     -1.33165211041290      0.41794773136704
  O   3.47074495165226     -1.93603606928398      0.68102236180400
  N   6.71912121408022     -0.82875248304429     -2.38349431813683
  C   7.45404514067669     -1.78281216332233     -1.94189812681243
  C   8.89484099393292     -1.53627677516009     -1.80165859818770
  C   9.24126864036265     -1.65958077185838     -0.51376543661047
  C   10.30305519993624     -0.93394558561977      0.23511419212135
  N   11.47934782861532     -0.84340572457826     -0.21966747863924
  N   9.86285015633512     -0.41791088105672      1.48224397057224
  C   8.48195889729994     -0.40680028675257      1.80415135142495
  C   7.68622546637813      0.50928456557369      1.24386492064862
  H   6.98421838098767      1.17065115435772     -1.05904343106878
  H   7.04912101704451     -2.52903558868744     -1.24840528459133
  H   9.43386123530554     -0.92160473729838     -2.51034061667774
  H   8.57140564112095     -2.22439510159615      0.12815993224701
  H   12.08119999844763     -0.29135242446608      0.39114045774404
  H   10.52363037513101     -0.54116707730089      2.23577307009131
  H   8.08432144910129     -1.24241048915636      2.37289430921513
  H   8.17689786938920      1.33094546827139      0.73440758761721
