28
Coordinates from ORCA-job 6808optt
  Br  4.34946153006991     -1.33242793638704      2.49135829579766
  C   4.95359107350294     -0.84318221267279      0.78745258835998
  C   5.87096445662423      0.13323030843176      0.58541646643704
  C   6.34014270114180      0.42650742630492     -0.72698351920783
  C   6.14860990695651     -0.53435326446467     -1.64490100310935
  O   5.26740141108582     -1.52122128832001     -1.47804921259706
  C   4.49891920274097     -1.66955448354282     -0.32343230576242
  O   3.63874884387242     -2.49128240655657     -0.32682459414503
  O   6.91260120947773     -0.69359083827437     -2.72717347698670
  C   8.00031354985449     -1.62142847030728     -2.47924224987425
  C   8.96460918126520     -1.14705802769905     -1.39543323529376
  N   8.45794881265290     -1.32223487323664     -0.03423739116414
  C   8.82748676626231     -0.29054416507096      0.93919554129825
  C   7.79596951917654     -0.08080188278727      2.05161999385759
  N   6.60994261644339      0.69434341754676      1.65707562839077
  C   6.03973276602503      1.57868512807999      2.53474153615495
  O   6.53662639135143      1.92925046585223      3.57368628811498
  H   7.08828003575372      1.18527565784308     -0.88686142696650
  H   8.51306298601064     -1.69016894499161     -3.43597356909468
  H   7.57550282464827     -2.59676649346060     -2.22978552032873
  H   9.15734138855264     -0.08573104042666     -1.56598309838452
  H   9.91875891752522     -1.66290937218554     -1.55968552217435
  H   8.68350057973678     -2.24211526160534      0.31983261406272
  H   9.78600735492837     -0.50965774324310      1.42400093940319
  H   8.96092132308223      0.65410823531986      0.40976702730680
  H   7.46834908412332     -1.05142057686144      2.44047322348072
  H   8.24717681795501      0.47549614474280      2.87133071574846
  H   5.07502874918004      1.96255249797234      2.16661526667621
