23
Coordinates from ORCA-job 6809optt
  Br  3.50062484434669      1.43811625644123      0.37453027236061
  C   4.53140744760487      0.07210457511064      1.19709698872761
  C   5.90148205390044      0.09487915943519      1.20877536512873
  C   6.34086613435639      0.26068225392101     -0.18591587551479
  C   5.71789115758844     -0.68949905090369     -0.92264050650510
  O   4.66735639355537     -1.46829457487778     -0.49894776425987
  C   4.01137978973811     -1.25947086688422      0.77690662700453
  O   3.24261974967663     -2.05440031082886      1.15312940398036
  S   6.28024322649724     -1.33277747358742     -2.46426002764435
  C   8.07074434768126     -1.10181402699944     -2.47381093810674
  N   8.66864311861604     -0.76508360408678     -3.53429275071857
  N   8.80337166171744     -1.39347894236995     -1.33973601269029
  C   8.26452976612536     -1.69136622642851     -0.09845873976530
  C   8.64234522008878     -1.15969533613975      1.06081452576358
  N   7.78237425761513     -1.28371815426243      2.17018004720633
  C   6.47816890802777     -0.86225249562791      2.22783145037158
  O   5.75432921739103     -1.20524782407668      3.14038807710208
  H   7.19579291702903      0.79504754395062     -0.57308100845439
  H   8.03155703793252     -0.51886996264376     -4.28395035322052
  H   9.74447309112296     -1.02509541121569     -1.38606816005531
  H   7.39715136780484     -2.33943265110323     -0.11973975671904
  H   9.51513279664882     -0.52302046950986      1.15813944327939
  H   8.07251549493475     -1.78131240731272      3.00110969272949
