27
Coordinates from ORCA-job 6810optt
  Br  0.91615320199428     -0.27964939112834      0.01062519088063
  C   2.80171741910642     -0.13273816283640     -0.00365364474350
  C   3.59959562361536     -1.21368672399412      0.07238100199849
  C   5.04044083558154     -1.15126242329725     -0.05326718422478
  C   5.54233053220050     -2.56891176478851     -0.11103872185104
  O   4.49755732655655     -3.32209351788255      0.45987053784029
  C   3.24055944275456     -2.68510366680897      0.20776161920752
  C   2.31775143375630     -3.14533309443070      1.34483743242453
  C   1.70352189698518     -4.42359931658124      0.79532853116945
  C   0.57169053951625     -4.28375154792148     -0.14390171404244
  N   1.92015896762748     -4.50809251535233     -0.65293508701223
  C   2.60895011884893     -3.27966133425029     -1.06875143676545
  C   5.74952849101507     -0.02535462383474     -0.12423426047051
  S   5.03246489386037      1.54166154470102     -0.10464343134885
  C   3.27867084584863      1.25480196775556     -0.14030896482498
  N   2.47628836646886      2.22968852525705     -0.24493600137908
  H   6.44985198641428     -2.73660563524728      0.46760899563605
  H   5.72656460321555     -2.87106785679195     -1.15009941911032
  H   1.56480452835820     -2.39918156133539      1.58288182600781
  H   2.92279701600686     -3.32735231059155      2.22998836785660
  H   1.84299454786702     -5.34323293112926      1.34769524907791
  H   0.14956376125656     -3.29043989028521     -0.26108355930468
  H   -0.11856733666279     -5.10258323325318     -0.30060060436306
  H   1.91931535854241     -2.57327526192416     -1.53449618716299
  H   3.39371502177859     -3.52337196634727     -1.78603466972308
  H   6.82938782244834     -0.01612587544915     -0.20670686093605
  H   2.94919275503868      3.12632256774769     -0.33628700483626
