25
Coordinates from ORCA-job 6818optt
  Br  1.33150332315331      0.03958932446666     -1.07061154307172
  C   3.15771271708485     -0.03159204098375     -0.57039735507051
  C   3.68862347606689     -1.24004628069997     -0.17906966013083
  C   3.09613139019220     -2.60750213716707     -0.00890042402782
  C   4.35499372717346     -3.45673889119292      0.26117265023801
  O   5.45118590901201     -2.53744288220478      0.49696971405870
  C   5.04173509821733     -1.30334948388529      0.16795149793198
  C   5.78237365467513     -0.14763166006949      0.15630199733299
  C   7.20795345315729      0.30938498199810      0.35323357632793
  C   7.77140477222445      0.60954535498427     -1.05665181515382
  O   7.00259686217592      1.75723819569349     -1.43473824254442
  C   6.20731735249858      2.05620963625645     -0.27985049932283
  O   7.00842181903916      1.66295427980171      0.79610878909844
  C   5.81009730830820      3.51402261328851     -0.28854151711445
  O   5.85387405675637      4.20446842101527      0.68309437752962
  C   5.10540552020069      0.99969199594506     -0.25612499084103
  N   3.84968434790820      1.10442164294667     -0.63079686737399
  H   2.55760012231585     -2.93979014877568     -0.89553283098066
  H   2.39744763355820     -2.62616419752633      0.82934920868994
  H   4.62555314409811     -4.06791774437193     -0.59940752586687
  H   4.27156342449861     -4.09021939346715      1.14026463886281
  H   7.84505267489014     -0.24449641041663      1.03225298936762
  H   7.61135850762440     -0.19877700479934     -1.76878953552094
  H   8.82547007372482      0.88152119533528     -1.00988809210085
  H   5.46593963144575      3.87962063382886     -1.27039854031729
