25
Coordinates from ORCA-job 6821optt
  Br  1.08987999575567      0.15525002585640     -0.24790812241277
  C   2.95257448137748      0.09729353572838     -0.08860089732240
  C   3.60178225325823     -1.06547822617574      0.04134484650810
  C   3.10715803009688     -2.49291317224008      0.12437100160735
  C   4.42452127928049     -3.26385042582783     -0.13315729908208
  O   5.48740525951212     -2.39694233027265      0.28484649397211
  C   5.02953943444911     -1.12062848028146      0.15816477514172
  C   5.74268576064305      0.00354063016788      0.14235283772419
  C   7.21688389968285      0.26542313755600      0.23851987183132
  N   7.24097771818373      1.70430735781185      0.09415346112916
  C   6.01113809243537      2.28309898111455      0.00205133618327
  O   5.76291581526203      3.45763058249733     -0.08609450258929
  N   5.07474617024433      1.22490214230174      0.02184157674618
  C   3.67249879072958      1.38944544527125     -0.10993008736743
  N   3.05914460131971      2.48818674549011     -0.23163063827322
  C   2.54050168024887     -2.77732101959661      1.44233941203555
  C   2.10616345364379     -3.02533905746147      2.52943528125968
  H   2.36414631241391     -2.70118063684251     -0.64687947016109
  H   4.53620132875919     -3.46613641625387     -1.20066878465038
  H   4.49607956176460     -4.18539365880931      0.43630817706425
  H   7.76579246181984     -0.24210596814414     -0.55799912641111
  H   7.61957260871418     -0.06375804012696      1.19992056081739
  H   8.05836920553586      2.28037301187764      0.18651864237844
  H   3.69508034589820      3.28092298670673     -0.22525686245294
  H   1.71024145897087     -3.23732715034722      3.49395751632399
