26
Coordinates from ORCA-job 6823optt
  Br  1.01270164822880     -0.24303613743393      0.23757745921021
  C   2.89810604944344     -0.08513904770723      0.06228144030184
  C   3.44317012560209      1.15187189020630     -0.19407125884831
  C   2.87084871406200      2.52094605631115     -0.41014636520844
  C   4.15709883027425      3.37083007729459     -0.46952168820760
  O   5.26887795497501      2.45365883297763     -0.58825021117119
  C   4.81939615729504      1.21920915038130     -0.33226154746461
  C   5.62508377498549      0.08069956402586     -0.23196272200841
  N   6.99630353645733      0.25902510185357     -0.34629813592874
  C   7.86512332275102     -0.61520529261702     -0.66716406992100
  N   7.76949662901891     -1.92626589677788     -1.01307738170874
  C   6.55562137191427     -2.71913752766262     -0.98754415794724
  C   5.69005735508581     -2.39487945704151      0.23195792812450
  C   4.93791338921534     -1.10878615140579      0.06356072500206
  N   3.61251030908250     -1.18227648927882      0.19543524705925
  C   9.25023770286781     -0.14781158768471     -0.69918598978937
  N   10.35049826792369      0.16872352109618     -0.73490779643524
  H   2.20921429469217      2.82921275465704      0.39834400781599
  H   2.30084926662276      2.56326072294318     -1.34006499671939
  H   4.30670143242961      3.94395798789027      0.44529318714583
  H   4.19662847341796      4.04097465474032     -1.32438026986212
  H   8.63555370796877     -2.39187330297765     -1.22698720348666
  H   6.86373330498780     -3.76354685816802     -0.96197294336066
  H   5.97375104571847     -2.56874668189279     -1.89974550132234
  H   6.33267336455853     -2.35256170090819      1.11538982778420
  H   4.95584997042108     -3.18410418282126      0.38170241694618
