23
Coordinates from ORCA-job 6824optt
  Br  1.02907375922435     -0.10869759588290      0.05333260371461
  C   2.91536528381251      0.01289375915549     -0.00613531109361
  C   3.65384129018195     -1.15779159470173     -0.02398079102346
  C   3.23691001585490     -2.60040271845363      0.02555442376357
  C   4.58223414272964     -3.31178100934247     -0.21118917909848
  O   5.62235080587599     -2.32376371738125     -0.02996362580525
  C   5.03983781030035     -1.11380795227688     -0.03839871444716
  C   5.69041956234660      0.11218659176663     -0.04493761199277
  N   7.04730333360712      0.41744030862436     -0.06296446245205
  C   7.11168301420139      1.69573990906032     -0.07136833430719
  N   5.85201266570700      2.31567089031052     -0.05994984467329
  C   5.72024787892510      3.68791338828521     -0.07320568294471
  O   6.64388435209613      4.44930709129061     -0.09624495152563
  C   4.33984463130068      4.20135616224158     -0.05753916015748
  N   3.29187084033431      4.66078758314356     -0.04600307757521
  C   4.90182287781553      1.27588514718447     -0.03918467583375
  C   3.51323060464817      1.26787431852320     -0.01970462031518
  H   2.50047792548865     -2.84800071730530     -0.73804964326147
  H   2.80209134840448     -2.84426451134692      0.99697278291620
  H   4.66434278316310     -3.68788649832801     -1.23133545676356
  H   4.77656273476200     -4.12076467404665      0.48795034919931
  H   8.00387867290951      2.30150335553353     -0.08417242961976
  H   2.90971366631046      2.16060248394622     -0.01348258670368
