23
Coordinates from ORCA-job 6828optt
  Br  1.19320747221672      0.51879133897118     -1.86621647425406
  C   2.85519211866445      0.38799609027545     -0.98665329828010
  C   3.13770503034825     -0.79616246873100     -0.32906090667439
  C   2.36990861159727     -2.08361520271928     -0.20198157729955
  C   3.22614501982290     -2.84809946346806      0.82579384119246
  O   4.50080078665379     -2.16956201423056      0.90068767836992
  C   4.34573476498588     -0.96127044752250      0.32301489446339
  C   5.28710723707781      0.04366258056810      0.33186868051198
  S   6.86012517432563      0.01581418583489      1.08915708629127
  C   7.13710355052605      1.62626027267059      0.50745527710608
  C   8.09820880943489      2.60647273321143      0.51986405161326
  C   7.50294101488593      3.65218443022296     -0.21776826421438
  N   6.28925719263484      3.35734018540124     -0.65277642331090
  N   6.07619452120256      2.11167129350320     -0.20213163781625
  C   4.99337950297186      1.24355253135345     -0.33495777393450
  C   3.78224173126394      1.43710602789763     -1.00016609459822
  Br  3.41023897252783      3.04984656011981     -1.88636336333642
  H   2.31717255402217     -2.59793714544276     -1.16390036300735
  H   1.34979103602649     -1.93172081966222      0.14845323571399
  H   3.42245522541259     -3.88150404787621      0.55240072977188
  H   2.77977524504700     -2.81511573531132      1.82028139161193
  H   9.06783698650292      2.57949493269815      0.98222130160601
  H   7.92147744184814      4.61879418223583     -0.44822199152606
