23
Coordinates from ORCA-job 6835optt
  Br  0.93283422605296      0.18126600303692     -0.04899284291607
  C   2.79873930250265      0.08148542630284     -0.05107758710537
  C   3.46763396987450     -1.10721867459990     -0.05212953932746
  C   3.08188875306769     -2.49757770015507     -0.05244876010181
  C   4.23438576731036     -3.18971663804886     -0.05356017621791
  O   5.34017970696425     -2.39530512499272     -0.05403855011558
  C   4.88755638976911     -1.11015464356435     -0.05316528220328
  C   5.63219593245724      0.02616918563522     -0.05309574168126
  C   4.92289470210375      1.23041239608628     -0.05223277969477
  C   5.32957546755407      2.57574107518439     -0.05202224617704
  N   6.57941375509354      3.07613480432777     -0.05244607086456
  C   6.64126516520724      4.38128692117828     -0.05203258712659
  N   5.59671936053577      5.25727494121574     -0.05139785374538
  C   4.38375892091167      4.77255894692374     -0.05102507608364
  C   4.15930106443835      3.37731246414772     -0.05122504842119
  C   3.04532461937781      2.54165978375294     -0.05080080345961
  N   3.51012775820433      1.25551596457305     -0.05136103378142
  H   2.08507778240812     -2.90261859516009     -0.05197888601993
  H   4.43138898630489     -4.24875914206942     -0.05417957463013
  H   6.71243544791165      0.04356161739794     -0.05370579314561
  H   7.62591780430806      4.83285126420581     -0.05235576785719
  H   3.55975845078368      5.48015897390501     -0.05051633138925
  H   1.99262666685828      2.75196075071677     -0.05021166793497
