23
Coordinates from ORCA-job 6850optt
  Br  0.90983356936156      0.20051791960305      0.16410051643380
  C   2.78396486598275      0.08654610307886      0.05773397811923
  C   3.40964425504381     -1.11182489309106      0.05215536088147
  C   2.94531897961183     -2.47604108352924      0.10561760789576
  C   4.04588699977980     -3.25187735490281      0.07351665724520
  O   5.20427196739086     -2.50147584011482      0.01208932223980
  C   4.84697607487861     -1.19246461599646     -0.01008427512351
  C   5.75571619610473     -0.19820225748853     -0.08345915184692
  C   5.37736945805154      1.18940262632541     -0.11345793214963
  O   6.11975986046066      2.13337559077082     -0.18991317085732
  S   3.60329733781640      1.59158988022509     -0.02374177075961
  C   4.26414683113520     -4.67038796102709      0.08607899608221
  C   3.38705364725587     -5.69636118500150      0.04859004988499
  N   4.12254446841300     -6.86463632179758      0.07959227232648
  C   5.49025031092571     -6.59997038177057      0.13401438080631
  N   6.50587410763461     -7.36574843268395      0.17420067727922
  N   5.53917479254578     -5.22214979971800      0.13665953890869
  H   1.92228141549213     -2.80461677686300      0.16184535628635
  H   6.81507923698580     -0.41124671815174     -0.12780567932865
  H   2.31347874638926     -5.68631709305147     -0.00484516622138
  H   3.74546018284442     -7.79432824340761      0.05788302164533
  H   6.24998920409420     -8.34602373661171      0.16468029234202
  H   6.40362749180139     -4.71075942479605      0.17154911791015
