23
Coordinates from ORCA-job 6858optt
  Br  1.05267270845355     -0.00505918316202      0.12784483656130
  C   2.92966239385764     -0.00538391453859     -0.03656313911151
  C   3.63412395978481     -1.15423902377138     -0.02746730479941
  C   3.13858837723808     -2.57732222394856      0.08266954832348
  C   4.41925480224348     -3.37359556253295     -0.23361723365946
  O   5.51436126615416     -2.49717445313970      0.03161666030423
  C   5.06987903788178     -1.21442450440897     -0.07091400068385
  C   5.88424989961235     -0.15562359986789     -0.16378272166921
  S   5.29436479295503      1.45902412433538     -0.23102615145235
  C   3.52072405599271      1.33970996877914     -0.13919566365853
  O   2.89110204875544      2.36431253653360     -0.16471075055782
  C   2.03159707919209     -2.95874797028831     -0.86864388324244
  O   1.68522206692042     -4.32680255156622     -0.86586010949312
  C   0.72074455088262     -3.40398431901640     -0.38061926413468
  C   -0.46453820027212     -3.19009459799885     -1.25968004976801
  O   -1.51095506670226     -2.77506644568515     -0.85379483394389
  H   2.81581737906644     -2.76262054348181      1.11159462453639
  H   4.43783345281937     -3.66048995187071     -1.28910270428339
  H   4.53349938827109     -4.26210372968882      0.38005402380981
  H   6.95961031022152     -0.26277899441976     -0.19489754188321
  H   2.09060417302706     -2.51348854988334     -1.86051531607644
  H   0.52956364018285     -3.41369675006734      0.68747542718391
  H   -0.29398211653816     -3.43134976031133     -2.32686445230178
