27
Coordinates from ORCA-job 6859optt
  Br  1.94752739575873      0.06065875022877      1.97580936863590
  C   3.43426806209721      0.00112792551261      0.81316124464733
  C   3.81862532391113      1.12023970627555      0.10748680223007
  C   3.33125940583720      2.53590675784049      0.07224819180546
  C   4.13576623887303      3.08587089662537     -1.12169383735482
  O   5.22591504865636      2.17429164810528     -1.35086627614454
  C   4.93192650733445      1.01269171553301     -0.73361121420988
  N   5.66891911904219     -0.06054339702498     -0.93529893403744
  C   5.27501773839621     -1.10342576468191     -0.21923988830558
  C   4.18960769077815     -1.14790494353470      0.65432713840046
  C   4.09929574271735     -2.58000545870796      1.11980315063958
  C   5.58174627701036     -2.95205225073851      1.20559179588759
  C   5.84716153696880     -2.51074353399824     -0.26009504122912
  C   4.73679432331585     -3.36413308690326     -0.94574985513400
  O   3.66381785869612     -3.36544961334807     -0.00582691885739
  C   7.17431806688120     -2.68085690566353     -0.80784644778984
  C   8.27164528196525     -2.83805350476278     -1.25980381504445
  H   3.57125173682713      3.05229934522984      1.00442076714443
  H   2.25635615277172      2.61588879681622     -0.08527112314081
  H   4.56060155733577      4.07091017761991     -0.94809724759449
  H   3.52844301516650      3.10947969418172     -2.02821144855434
  H   3.45456177121049     -2.79093800803482      1.96663683549551
  H   5.73878308937947     -4.01907720328346      1.35488717550837
  H   6.14906736670638     -2.36395110899731      1.92255773551457
  H   5.08950637088868     -4.38412897384889     -1.10688034986672
  H   4.41544506869341     -2.92818534403691     -1.89209999440527
  H   9.24637225278077     -2.96791631640346     -1.66533781424060
