22
Coordinates from ORCA-job 6860optt
  Br  1.00223102878206      0.06848671308305     -0.04985151075592
  C   2.88593587808566      0.06146285143023     -0.05288934785575
  C   3.59010860737756     -1.13486649787719     -0.05425958836030
  C   3.27866410011583     -2.53612756186767     -0.05440894395008
  C   4.46974643032290     -3.16764743264449     -0.05620865781951
  O   5.52322998426501     -2.30743662632224     -0.05709627047765
  C   4.99795749979804     -1.05777472751193     -0.05590844421540
  N   5.74954266558287      0.01455203636949     -0.05623568347514
  C   5.04129918103660      1.13663079594992     -0.05504285810019
  C   3.61725152365482      1.23854738116086     -0.05347059394337
  C   3.23046274894239      2.63908853917165     -0.05258441359441
  C   4.36704945726800      3.37447984297524     -0.05343304646627
  N   4.55067386956211      4.74713939979562     -0.05309706194506
  C   5.74854399282556      5.15739081888724     -0.05386337080031
  O   6.88009698932001      4.39967015623796     -0.05498816594567
  C   6.75245663780485      3.04919905652098     -0.05558741889481
  C   5.53892942338640      2.49766306079389     -0.05491048870885
  H   2.30461370431492     -2.99393061869030     -0.05340080107406
  H   4.72954687512200     -4.21239929648726     -0.05697031425520
  H   2.21853664103089      3.01094995439252     -0.05153250113805
  H   5.99976982154027      6.20989972759692     -0.05368547945372
  H   7.70235293986124      2.53502242703549     -0.05657503877028
