28
Coordinates from ORCA-job 6863optt
  Br  0.91674824737667     -0.11009422259811      0.38355662974298
  C   2.79010128371572     -0.04568229949668      0.17925292344771
  C   3.46940738916335      1.14477651828245      0.06522674600659
  C   3.03027218376151      2.57531723385701      0.02539441177314
  C   4.39041372565635      3.29876347746597      0.11713026748786
  O   5.40702541653385      2.33565845992926     -0.20169956392328
  C   4.85861422227835      1.10116520237164     -0.09549480671315
  N   5.59611548213316      0.01894297960886     -0.16023652002075
  C   4.90571462465689     -1.11313628718591     -0.06828538376014
  C   3.53652247938319     -1.21967135506462      0.12912006948557
  N   3.14034810228215     -2.54216699164835      0.31256242386472
  C   4.24824318284578     -3.38785537808306     -0.16182905738462
  C   5.50230663514952     -2.49828346166948     -0.05084370423937
  C   6.38400098959044     -2.73355780866273      1.19349952910461
  O   7.41095745578843     -3.57165040704050      0.70729154194182
  C   7.65377978344862     -3.07053994888673     -0.57641040065917
  O   6.38532442537647     -2.77709812432430     -1.12375828249591
  H   2.36644697663614      2.84204110148584      0.84712964110424
  H   2.50813502598506      2.79361627547994     -0.90903153728216
  H   4.57536903262563      3.65884849884265      1.13085306567274
  H   4.48880973898026      4.12693186143003     -0.58004655366436
  H   2.22056335433437     -2.77569601116841     -0.03510543604209
  H   4.12968421997194     -3.65047834633723     -1.21656439708603
  H   4.33186795677393     -4.29937097815080      0.42814533376586
  H   5.85988334943215     -3.23329787671004      2.00494765520320
  H   6.79658489311269     -1.77905991674892      1.53796634071173
  H   8.14192020375476     -3.83409568248976     -1.17794988342938
  H   8.25383961925251     -2.15332651248802     -0.52682105261236
