21
Coordinates from ORCA-job 6864optt
  Br  0.91803541875234     -0.23680860382118     -0.03731519367074
  C   2.78344094631982     -0.06748950747229     -0.07256513977426
  C   3.38579961862917      1.15281277658613     -0.20537239256716
  C   2.84763874029422      2.53261209588826     -0.39955806275542
  C   4.15247685771418      3.37966476623757     -0.24278110835482
  O   5.25380273821882      2.47339920095845     -0.40302007191866
  C   4.79000617966806      1.20417265381839     -0.24198365835939
  N   5.61786708847874      0.20466052590316     -0.16311352943842
  C   5.00422506594026     -0.97522774603071     -0.03327118299543
  C   3.61806613691774     -1.19385555277158      0.02416300828668
  N   3.22947375983987     -2.50275448555659      0.15890000158580
  C   4.26476407536579     -3.26529407050171      0.20229919643174
  S   5.81617025582605     -2.49712917138296      0.09018961404545
  C   4.26057458378124      4.45737083572124     -1.22379966943812
  C   4.32747284643127      5.33051941548002     -2.03581684582101
  C   4.22139880553898      3.93786369778445      1.12935977422922
  N   4.23657405743065      4.35036376244684      2.19661103204546
  H   2.09524228025761      2.82333762574823      0.33078837383982
  H   2.43425393087556      2.66649975663088     -1.40006757283114
  H   4.20259679849992     -4.33999158902212      0.30410428343255
  H   4.40111981521964      6.11127361335551     -2.75575085597216
