28
Coordinates from ORCA-job 6872optt
  Br  1.14021895967894      0.28847535425312      0.20396631193196
  C   2.99272533469393      0.07714831772106      0.03832562463525
  C   3.60628116546579     -1.10120847928405     -0.00577294457583
  C   3.20311382394577     -2.53469479764001      0.08072101004176
  C   4.54479072856591     -3.22994315323144     -0.23685601864414
  O   5.58319428850104     -2.23813883824416     -0.10628222628102
  C   5.04729949598536     -1.01703523599097     -0.08957779354513
  N   5.75641983372711      0.04070155490901     -0.12939009257403
  C   5.09211835877727      1.24470056270128     -0.11260576656956
  O   3.65884492866019      1.22645721215372     -0.01588244585599
  N   5.65878500809751      2.35776917455157     -0.18302417526500
  C   4.88950483597784      3.57997072443476     -0.16165435007706
  C   4.52448770766346      4.02732833445000      1.26785230853167
  C   4.18416386254730      5.50726215671590      1.11324225078634
  C   5.06278626513901      5.98267039102600     -0.03967201536832
  O   5.22797820621808      7.12665985684416     -0.36077911343124
  C   5.68291126708211      4.76613239406527     -0.70650699141715
  H   2.42589747546740     -2.80518861182445     -0.63235384153783
  H   2.84767444161439     -2.78655850244316      1.08104736172420
  H   4.57415360921862     -3.60058038033485     -1.26108874753338
  H   4.78314221600760     -4.04006606948973      0.44664751095309
  H   3.96180410301829      3.47417213082640     -0.73590050915254
  H   5.40875654738232      3.90018299755667      1.89652131156185
  H   3.71805746078361      3.42897299595033      1.68849731593688
  H   4.34472250165395      6.11928989282457      1.99895975417367
  H   3.14510166137937      5.64816677177159      0.80039240066716
  H   6.71964730576525      4.68649182067891     -0.36438921178338
  H   5.69341860698252      4.86286142504845     -1.79043691733222
