23
Coordinates from ORCA-job 6876optt
  Br  1.27106165249242      0.72084124555510      0.05057982103774
  C   3.07364492758857      0.23046195758692      0.07811081473709
  C   3.50629421578004     -1.02691502645991     -0.05696635145074
  C   2.88913463089576     -2.37566280165552     -0.21285379924428
  C   4.15429643853781     -3.23236030539494     -0.50559522704372
  O   5.29000929465344     -2.44158687204503     -0.11702439640418
  C   4.92924440236874     -1.16418277897431      0.01253475847908
  N   5.80075620578378     -0.24003426489391      0.18716915407883
  C   5.33578085956398      1.03992086913360      0.32906414865955
  O   5.97099425352115      2.02100140268091      0.50618676184805
  O   3.90685388046648      1.24061733354915      0.25118323375675
  C   4.29867428665932     -3.57298084339650     -1.95554099654897
  C   5.20674621455709     -3.09746455528318     -2.81194550806827
  S   4.96806156033135     -3.75157238309997     -4.41367683740025
  C   3.57380510441797     -4.71804019112016     -3.87342058588165
  N   2.83327506439218     -5.51777166641759     -4.51346193337136
  N   3.39494285606705     -4.44765721570143     -2.52883170704242
  H   2.17251721554792     -2.43073999641188     -1.03186530825082
  H   2.39474196316751     -2.69936324568052      0.70422882916981
  H   4.17784923142176     -4.13938659347706      0.09987318769610
  H   6.00878321127957     -2.41568822367557     -2.58678193143364
  H   3.09795027830293     -5.61198558742252     -5.48707520619706
  H   2.68258225220312     -4.95445025739564     -2.02689092112563
