24
Coordinates from ORCA-job 6879optt
  Br  1.06394105483818      0.20456553479650      0.10513494170026
  C   2.92299639615534      0.08313122250986      0.04671592652062
  C   3.55018608330780     -1.09889768917509      0.04952034710752
  C   3.09605086610208     -2.51985389696253      0.09894815065266
  C   4.43339056717913     -3.27886302304655     -0.02014955059816
  O   5.50026605999174     -2.32007488915688      0.07557608147939
  C   4.98150251115341     -1.07666447157856      0.03411725183654
  N   5.72702512683153     -0.04568537363052      0.00140075574462
  N   5.08190838706900      1.15177846040910     -0.01633208538483
  C   5.97178371515591      2.28921031155203     -0.06147879722911
  N   7.23278159240988      2.19568182159238     -0.08259279959651
  C   5.25191695723275      3.53957093453704     -0.07939228392718
  C   3.90565596634785      3.57235046309897     -0.05262696236605
  N   3.11057635697371      2.46034092845887     -0.00933599792991
  C   3.70782364798986      1.31265308713263      0.00579910551701
  C   4.58948982317787     -4.03461690556928     -1.33221439331067
  O   3.67155033225842     -4.55973799148510     -1.88919368153831
  H   2.42427170468250     -2.78108001824549     -0.71982873728294
  H   2.57998302001334     -2.73424459165928      1.03500198755106
  H   4.57464943790195     -4.00194274439507      0.78642716500095
  H   7.53786062294840      1.22643008621132     -0.06348410546123
  H   5.84984898135459      4.43794265022400     -0.11234994573881
  H   3.37267752827373      4.51498328385077     -0.06500774657864
  H   5.62286326065095     -4.07797718946912     -1.72065462616828
