21
Coordinates from ORCA-job 6883optt
  Br  0.98643319564055     -0.19950924491598      0.44915623976539
  C   2.84446971457622     -0.13691205508085      0.19800793059026
  C   3.59442258145041     -1.24684680725229      0.08839817504311
  C   5.01439598750570     -1.22874206304424     -0.07036393104291
  C   5.47368492467786     -2.65913085194170     -0.11059245843874
  O   4.28113507103081     -3.43720698199879     -0.20182325383156
  C   3.16063615440162     -2.69286352748187      0.16724063513820
  O   2.76594975356313     -2.95650761985961      1.49231679623534
  C   2.39650692063582     -4.24978720558189      1.77987293314870
  N   2.10761293037480     -4.63600070198430      2.92954017670365
  C   2.07224095465230     -3.04641091627047     -0.78247778425749
  N   1.24476929045607     -3.32505115989877     -1.52171375026389
  C   5.79799044123710     -0.13734015595443     -0.13956579055159
  C   5.29501483000133      1.22066138633809     -0.06110443554372
  O   5.95099370467812      2.22353432914540     -0.11396116717647
  S   3.50054351893204      1.44909928547728      0.13813425867412
  H   6.02507526552266     -2.92071133532954      0.79571786193833
  H   6.08713425269306     -2.88299392795459     -0.98223861920352
  H   2.37202130338396     -4.91691275595451      0.92053875874646
  H   2.18689750951796     -3.88035439486926      3.61101379808147
  H   6.87207169506843     -0.21701329558767     -0.25709637375511
