26
Coordinates from ORCA-job 6889optt
  Br  0.83022107438970      0.34919797460939     -0.17419809543819
  C   2.68872268167335      0.14758739866304     -0.10201610415586
  C   3.34518059886965     -1.02007621528315     -0.21879328711505
  C   2.52072360218009     -2.25169636589725     -0.52284816880497
  C   3.27756360405990     -3.52649748859062     -0.86858420503556
  O   3.95930345767879     -3.98331716127353      0.28466771098836
  C   5.29289278473040     -3.60518666938047      0.33953633455209
  C   5.70390568211259     -2.79977589184441      1.51391849050009
  C   5.69348634329729     -2.17349296741556      0.13296877846935
  C   4.82399624537456     -1.00476280303592     -0.18549290065624
  N   5.51644810093406      0.04606532027422     -0.47024634097146
  N   4.86372914539817      1.20983621059323     -0.72203688640564
  S   3.56005852235147      1.63693746421576      0.20315754364572
  O   2.94707137943388      2.75316684275202     -0.43660007682013
  O   3.88907714391037      1.69799919643500      1.58975797089732
  C   2.32634192826230     -4.54875859322891     -1.31392450372757
  C   1.51458448610725     -5.34383963160509     -1.68766399456264
  H   1.85318132361205     -2.00438985038750     -1.35085332785153
  H   1.87882371279720     -2.47814942341445      0.33246113261189
  H   3.99424258895537     -3.34361500472426     -1.67649845146650
  H   5.97706450048381     -4.34915505786540     -0.05558604955370
  H   6.66029032201058     -2.97488743706143      1.98372906750425
  H   4.89559952310024     -2.51659655699765      2.17446678009039
  H   6.67262615704482     -2.03871829112801     -0.30597878217098
  H   5.48660819761260      1.97809156443590     -0.94184389539060
  H   0.79725689361948     -6.05796656284491     -2.01549873913285
