19
Coordinates from ORCA-job 688optt
  C   1.79652418247865     -0.83960585672205      0.93389353382695
  C   3.20554228736478     -0.35131524654694      0.62565806183430
  C   3.35418026297116      1.17685142642392      0.73855397848581
  C   3.11035190757274      1.63628033748406      2.15007123018741
  C   2.15085692226240      2.46574019855011      2.52970267778182
  C   4.73025910272063      1.59328068104563      0.29879975544908
  C   4.99565342620324      2.34812202849150     -0.75644648944414
  H   1.72236574083489     -1.92100127806331      0.81770492522003
  H   1.07257559513488     -0.37898836539593      0.25835599197718
  H   1.50401111243102     -0.58595749267393      1.95321427774816
  H   3.49206773218116     -0.64630510205587     -0.38622171936188
  H   3.92437900381994     -0.82302131980530      1.30346948417560
  H   2.61638108569050      1.64915534687910      0.08183122283269
  H   3.79759890350299      1.23636845383902      2.89402141667655
  H   1.45182243671830      2.88190620342968      1.81285795236286
  H   2.03131990209483      2.75901194596167      3.56466126358782
  H   5.54979401140703      1.21837477825482      0.90916285952711
  H   4.20113601651479      2.73981913745694     -1.38179595146727
  H   6.01118036809604      2.60328412344687     -1.02949447140008
