24
Coordinates from ORCA-job 6895optt
  Br  2.83773191980597      0.65416893809018     -3.88692738386676
  C   3.45468259550476      0.51809178679360     -2.09980139849975
  C   3.53991061737263      1.57870921954978     -1.28194543405650
  C   3.03077567642254      2.96977836106893     -1.58036630623762
  C   1.49936842122796      3.15113563941333     -1.45822931505794
  O   1.05834164492185      3.68377378645383     -0.19484101867142
  C   1.46898827773982      2.99051009971301      0.87807120755869
  C   1.62502518966807      1.64531522691183      1.00857390842705
  C   2.45455813924359      1.36358733269923      2.13075207136128
  C   3.31742153241101      0.11613382060535      2.13347021536139
  C   3.77980180473698      0.01968147394647      0.68657152353849
  N   3.66892009881034     -1.06783253428970      0.03245062941108
  S   3.76335263898904     -1.12415542256783     -1.62965128003917
  C   4.15247700177853      1.33456185225261      0.04285359770301
  O   4.83130985932496      2.14543627070138      0.62186597789092
  N   2.74198577448370      2.37673119336583      2.90516023637040
  S   2.13526336700804      3.76709770231405      2.26155098804460
  H   3.30541809635004      3.23594523767536     -2.60156762920950
  H   3.53074290366910      3.67497308003728     -0.91377415804051
  H   1.15970575080172      3.89300343159727     -2.17634076139900
  H   0.97919551394085      2.21211529412316     -1.66411687925987
  H   1.32229774391400      0.91893018034953      0.26951971687911
  H   2.79104462995017     -0.80087284726434      2.39319294829977
  H   4.15068080192430      0.27718087645984      2.81652854349224
