27
Coordinates from ORCA-job 6896optt
  Br  1.00245083482824      0.23457577879720      0.28414624845958
  C   2.85616617204037      0.07919203461611     -0.01331742839474
  C   3.63557717241040      1.15821546997256     -0.13382251425950
  C   3.26567140901857      2.60893599409681      0.04346898557684
  C   4.62554474441877      3.28671138316813      0.21468973789695
  O   4.84526638520283      4.30371511993713      0.80145623772986
  C   5.66045615816891      2.40131409098949     -0.47268680631274
  C   7.13411854761641      2.56954239910627     -0.12096756556823
  C   7.67332877406993      1.35344964501171      0.62553147971844
  C   7.31072795682228      0.01833606228675     -0.06082838445216
  C   7.86141520052036     -1.05435160500219      0.85950747153601
  O   8.86802512772625     -1.66618888361653      0.64459452669974
  C   5.80712237969582     -0.09256179540946     -0.20530420088209
  C   5.07276745429634      1.03169693707957     -0.28289070643756
  C   5.18496081946263     -1.42002929918249     -0.27730727285317
  N   5.73693781670547     -2.54107923601559     -0.48850067865681
  S   3.41268917824801     -1.55680836889387     -0.07850770294099
  H   2.61911985169063      2.79510841735895      0.90020855022568
  H   2.77334196990008      3.02866067600240     -0.83996802826823
  H   5.50997435373204      2.62961570424428     -1.53874859415111
  H   7.25384146888546      3.47124988981838      0.48229949437531
  H   7.71354610639804      2.71329038238949     -1.03317628722710
  H   7.26103949957215      1.33318922048089      1.63906810398778
  H   8.75761230067648      1.42436395398934      0.71690755578261
  H   7.83154243706786     -0.07083215453629     -1.01914142188366
  H   7.29235757868096     -1.19694033052642      1.80050228606028
  H   6.74339830214461     -2.48137148616263     -0.62321308576099
