28
Coordinates from ORCA-job 6901optt
  Br  1.24165161264618      1.00229269170549     -1.46725290197742
  C   3.00751903614532      0.52131502181276     -0.93059619675473
  C   3.24610458231389     -0.74170521749403     -0.39895443652759
  C   2.11714474804809     -1.78846591030609     -0.27642460187262
  C   2.27055981587791     -3.29178756502501      0.19867297662436
  O   1.63722540395408     -4.13508784759773     -0.36968614682306
  C   3.12047344339707     -3.61257004914859      1.46566961814622
  C   4.35870751400397     -4.53962453476922      1.22006827789609
  C   5.54410024666024     -3.52885950127216      0.89391818851019
  C   6.36979697906145     -4.02103824028423     -0.25700616474506
  O   6.35085657543095     -3.52934643454727     -1.35164756412364
  C   4.63660714492542     -2.34853589809377      0.57831911286068
  N   3.79744239308017     -2.37920371025980      1.78274081266975
  C   4.58220690877726     -0.97381647423186      0.00123328553026
  C   5.55312556594473     -0.01255714764166     -0.17213694977271
  C   5.16796467833785      1.19500381401696     -0.74132972631103
  N   3.91886238997582      1.45639298587256     -1.10237741664361
  H   1.63605481130385     -1.87947931357966     -1.25066361680640
  H   1.34255250219867     -1.36315623829355      0.37411869727747
  H   2.46589312500977     -4.00074707671441      2.24641341475902
  H   4.17610829010141     -5.22038922129410      0.38675825100151
  H   4.57084920418951     -5.12719631940210      2.10961129215400
  H   6.17021914144691     -3.38893630538337      1.77565107480465
  H   7.00574170633056     -4.90241680933509     -0.04615683121410
  H   4.12089325469518     -2.83734877694216     -0.26658371094349
  H   3.17212991795633     -1.58710627385556      1.85208415971173
  H   6.57871040192353     -0.19370306865042      0.11736496064110
  H   5.88949860626385      1.98607342071410     -0.90880785807155
