20
Coordinates from ORCA-job 6903optt
  Br  1.21184583229859     -0.22350684047306     -0.04618224794266
  C   3.08524539601303     -0.05984447956391     -0.04550030062592
  C   3.70507750948433      1.15152962918568     -0.04556495544615
  C   3.26784312091996      2.58738416897699     -0.04601746227317
  C   4.59858852089842      3.37885676035353     -0.04584703381568
  O   4.71456242848889      4.56505845792911     -0.04616619754090
  C   5.71265707201625      2.35690432021950     -0.04528822578273
  C   7.08209953281642      2.41898853614554     -0.04491091630993
  C   7.78936780940728      3.66136353776558     -0.04511171090877
  N   8.34979270925677      4.66158793576560     -0.04527001594892
  C   7.76274563766633      1.14919703496923     -0.04431367149282
  Br  9.65223932651909      1.17266002434063     -0.04333301494064
  N   7.19449810438748     -0.01709821016330     -0.04413793156904
  C   5.84151318740079     -0.08058486968912     -0.04455150818562
  N   5.20080326995085     -1.27211892699665     -0.04448083434834
  C   3.89186207857078     -1.24164985122049     -0.04494420087255
  C   5.10914075740179      1.10270106087668     -0.04511215283278
  H   2.67857464337975      2.85501641597914      0.83313921832191
  H   2.67894963268558      2.85463183296028     -0.92553659935550
  H   3.38059343043761     -2.19907653736095     -0.04487023812979
