29
Coordinates from ORCA-job 6906optt
  Br  2.48817369897649     -0.46126476495243      3.31128103282601
  C   3.34457816260442     -0.30012124463369      1.64271518453604
  C   3.57468174713564     -1.33344704499824      0.81205019296687
  C   3.16807869863747     -2.73972499708006      1.19837547216234
  C   2.85145083559449     -3.70414570944434      0.06348649371924
  O   3.98223073480699     -4.27671868301070     -0.56761213205352
  C   5.04515190901248     -3.39141315754828     -0.80834441920445
  C   6.00657148275569     -3.99180986196689     -1.82643632966026
  C   6.43372200914355     -2.82938745124871     -2.69792376954264
  N   7.29953106295718     -2.77051126156700     -3.61906944047018
  N   5.66341216987286     -1.74351941569567     -2.34195359212301
  C   4.58263088308462     -2.05881045487420     -1.43950482591046
  C   4.30144795474222     -0.98647882848747     -0.40952185796285
  C   4.70532769471768      0.27866683195489     -0.61680715960195
  C   4.40997103922084      1.35277338252621      0.31112863593640
  N   4.68906465671725      2.57952126147618      0.24815175192720
  O   3.69708241012815      0.96795924812227      1.43566953934317
  H   2.26741542864140     -2.67331823177935      1.80724984655319
  H   3.93062912637013     -3.19055417414467      1.84197559078503
  H   2.21363972464174     -3.21049406706805     -0.67826636611432
  H   2.29315545449147     -4.54877455786097      0.46446386879464
  H   5.57219587032272     -3.16794836181672      0.12652099931910
  H   5.46535326556442     -4.71322784173949     -2.44148757051320
  H   6.85949384604214     -4.49476334139159     -1.37604652465754
  H   7.78223531231046     -3.65765820134538     -3.72333094932492
  H   5.60423187552311     -0.98657540014550     -3.00457176687491
  H   3.65049708808429     -2.25218251340420     -1.98701946949300
  H   5.27838828465789      0.55238673408827     -1.49052549837158
  H   5.20665757324215      2.78154210803583     -0.60164693699045
