26
Coordinates from ORCA-job 6909optt
  Br  0.91124515399315     -0.02020175259852     -0.32709827826644
  C   2.79808866858003      0.08319718925796     -0.24205015824825
  C   3.39234391264854      1.33242814980782     -0.29392726936399
  C   2.90477594613511      2.74975362354953     -0.12768112777941
  C   4.16457059673862      3.43643920869016      0.48814995911828
  O   4.14993392586404      4.32131389572089      1.28509746648250
  C   5.39328479802333      2.68026246293705     -0.05390117783519
  C   6.66554790390538      2.35521321839322      0.73987690668334
  C   6.86350641107753      0.82108509833848      0.57035156337593
  O   7.85927818273900      0.21576423170491      0.84538315912674
  C   5.55605768108281      0.26883477583086      0.08325606021858
  C   4.95064339888617     -0.98316488040692      0.13129879000024
  C   3.57309327762071     -1.08262553003706     -0.06628697899285
  C   2.91736051477240     -2.44322189760552      0.04131006964937
  C   2.29860080709875     -2.64254752810146      1.35264406299650
  C   1.81296422708601     -2.78346260978436      2.43791179313541
  C   4.76850572657379      1.34538666597579     -0.21701433205492
  H   2.04274649999436      2.85140179281465      0.52974987503981
  H   2.66776717438043      3.23816692994496     -1.07784780251392
  H   5.62965359166822      3.13486232008767     -1.02309107914011
  H   6.51850440666236      2.54640459514112      1.80613965467266
  H   7.55729185304276      2.89172884875742      0.42482810382296
  H   5.52060528545291     -1.87071952242176      0.37815155605303
  H   3.67105330914649     -3.21501091935999     -0.11903720234615
  H   2.15882379917392     -2.56265749476116     -0.73486937443298
  H   1.37775294765313     -2.90763087187577      3.40065576059885
