22
Coordinates from ORCA-job 6913optt
  Br  1.17492040089870     -0.18645012232850      0.67895407101858
  C   3.01878017714260     -0.35109900600597      0.46481982761402
  C   3.64054026786559     -1.46418973788911      0.02511337494704
  C   3.23107738966288     -2.75757039762995     -0.40024210681173
  C   4.39412386872114     -3.40798767142703     -0.73929791972425
  O   4.54137286805614     -4.67315469022997     -1.21723882540569
  C   3.40828199703080     -5.40881009593675     -1.36050224869261
  C   2.63310226227073     -5.69073745681756     -2.44158744553385
  N   1.61398650676196     -6.53044493706499     -2.06424174218998
  C   1.77277826876577     -6.74154326980266     -0.78752051955237
  N   2.85675433766760     -6.07756991533762     -0.29965718317142
  C   5.55165865661751     -2.58600112668793     -0.54355793340197
  C   5.09185525816439     -1.39076970628160     -0.07751125639052
  C   5.67734927006659     -0.15654182121105      0.29554613252421
  Br  7.54369199129032      0.05941687565218      0.19412053396946
  N   5.03798158436617      0.88033370558403      0.70984231102528
  O   3.65882114733652      0.76394065498901      0.79524409535938
  H   2.22285788195116     -3.13274599831351     -0.46312632446791
  H   2.75697211758443     -5.34312348540721     -3.45289296605119
  H   1.14797278303094     -7.36078269533594     -0.16476389062097
  H   3.20906817616673     -6.07909589529745      0.64312353756142
  H   6.57105278858123     -2.87507320722033     -0.74262352200492
