28
Coordinates from ORCA-job 6924optt
  Br  1.66149865152869      0.53227761294197     -0.76882255763683
  C   3.42826882421676     -0.04054477034336     -0.37003430672087
  C   3.70648339796632     -1.39286572928092     -0.23493426416622
  C   2.68852137996139     -2.48041796615729     -0.43730216571225
  C   2.95502368134888     -3.75125154752732      0.34397040500281
  O   2.12234163102230     -4.60127665541986      0.49719292315217
  C   4.34943354547086     -3.86539378218545      0.94886313283351
  C   4.81562184123152     -5.30480676556604      1.12710906361716
  O   5.47652894232502     -5.79064751373507     -0.03361812239813
  C   6.56265190445938     -5.07862104659955     -0.43455736797130
  N   7.42389051235987     -5.53276286385975     -1.22657648760399
  C   6.63378156799749     -3.66368254650034      0.08972666349703
  N   5.28887725688797     -3.13196248918842      0.11768282827487
  C   5.04287436807976     -1.76475275202898      0.00359505780222
  C   6.04221747370784     -0.80033733321415      0.10113025223840
  C   5.71941560204345      0.54084115831290     -0.04084139580648
  C   4.41259397237513      0.93417054142164     -0.27130579275066
  H   2.68486357198279     -2.77945277327320     -1.49302696428428
  H   1.67686550915294     -2.15081499530150     -0.20874736635329
  H   4.27094120658031     -3.40829530831855      1.95085952709525
  H   5.48680345094471     -5.38551589230203      1.98504105671646
  H   3.95188480665338     -5.94491407312292      1.28850960127042
  H   7.21529077566961     -6.50128913221305     -1.46859292939041
  H   7.24324753207744     -3.09753162531847     -0.60886169415720
  H   7.12808108013726     -3.64002702763380      1.07279336889192
  H   7.06453875659475     -1.09153094163169      0.29853207534988
  H   6.49572294269252      1.29006971540563      0.04189875002711
  H   4.15473581453161      1.97733650263961     -0.38168329081733
