23
Coordinates from ORCA-job 6926optt
  Br  1.01064479538825     -0.03443874266176      0.22155507733854
  C   2.90405704961554     -0.13199155687717      0.09645735066283
  C   3.59423373601228     -1.27089970916458      0.31778147720272
  C   2.91800711599267     -2.56263039187186      0.70142531204284
  C   3.24093972862596     -3.74021845693467     -0.21507704494769
  O   4.36665083080048     -4.49837238663561      0.24011706906178
  C   5.45087374860212     -3.79879431767584      0.46379726853421
  C   5.76188048390502     -2.48829224230784      0.46356024447282
  O   7.13568549744705     -2.42048996540406      0.72029659383821
  C   7.59444359231369     -3.68338906418266      0.90231285945430
  N   8.74269320650272     -4.07691872044102      1.17390700953873
  O   6.54271581432516     -4.54580982520208      0.73709423240321
  C   5.05097280143206     -1.25231003508174      0.22921236180251
  C   5.80816141071803     -0.14838623381964     -0.02160752376737
  C   5.32314698928474      1.17863824437434     -0.29475765140389
  O   5.99909641224247      2.14520513845975     -0.53940801458775
  S   3.54256282487812      1.41888295892147     -0.29524223577955
  H   1.84119526490967     -2.42540543204856      0.69924209227358
  H   3.19615829742205     -2.84041305324843      1.72296215264249
  H   3.44156162254192     -3.40778841780034     -1.23683319606606
  H   2.42589789261001     -4.45780170912730     -0.22573820537508
  H   9.38933635579177     -3.29969166024709      1.25960618242996
  H   6.88608452863816     -0.23468442102328     -0.04566341177135
