19
Coordinates from ORCA-job 6931optt
  Br  1.18605739944212      0.28720287178203     -0.78508774975436
  C   2.94635371367048     -0.02196316174113     -0.26478662320103
  C   3.48259173026498     -1.25015065016948     -0.15583386209253
  C   3.08023196299117     -2.61242176159218     -0.34967357325356
  C   4.17480695276602     -3.33577001119884     -0.04246814160770
  O   4.29313691102229     -4.66056541622280     -0.00419780179246
  C   5.51923766626033     -5.21461121967954     -0.20244813680378
  C   6.12122163510213     -6.20867446948992      0.47745298399446
  O   7.25472062036669     -6.47004043466256     -0.16509566091756
  N   7.33821413673503     -5.60862335674070     -1.24303532173755
  N   6.31719324618680     -4.88694479016672     -1.25834718813107
  O   5.26432494512152     -2.62022830202390      0.33474239155937
  C   4.86360870819072     -1.31093386899296      0.26393531334800
  N   5.65190462564040     -0.36379164824717      0.54620911339039
  O   5.08998662299180      0.87973633748748      0.43121032682171
  C   3.78181811170796      1.13988566817728      0.04328236847115
  O   3.44447297292558      2.28118898686451     -0.00803323927262
  H   2.12951735144615     -2.99299088953053     -0.67628068810515
  H   5.87660068716775     -6.78130388385281      1.35345548908430
