24
Coordinates from ORCA-job 6936optt
  Br  0.96441225547579      0.17412708204681      0.40882116192772
  C   2.74930612102402      0.03375404030090     -0.14046126273170
  C   3.49339422365080      1.11977752051985     -0.42401157515327
  C   3.34819461355506      2.58797191738103     -0.11498442206822
  C   4.80201480582525      2.97513725740875      0.29337743749107
  O   5.10616028643561      3.78904498777354      1.10260187058626
  C   5.75578270494651      2.06538515273387     -0.54137266647568
  N   6.99275464568815      1.51335720253007     -0.02166302254377
  C   6.84433413634006      0.23591806394485      0.02273513668712
  N   7.90131732433431     -0.54438123497692      0.47969828220007
  C   8.01487147851612     -1.90126314857936      0.46104509376789
  O   7.17057096541850     -2.67324115544249      0.07639145748802
  C   5.49077754076731     -0.22784503526669     -0.37500369075340
  N   4.75404407756175     -1.33941624731778     -0.11710871082012
  C   3.34357227068324     -1.32688892756225     -0.16301808899524
  N   2.61640594242672     -2.36737848836590     -0.13062644722888
  C   4.86485154568466      0.90876461059338     -0.73046433004228
  H   2.64063741916241      2.81218284716995      0.68064607953381
  H   3.07300258585907      3.17310224349826     -0.99808159570001
  H   5.98397661249536      2.63666419181221     -1.45031957837610
  H   8.69524044206158     -0.00513808354561      0.79684433874813
  H   8.98715630805839     -2.23950381916836      0.84471995326853
  H   5.23715745198192     -2.21401587212815      0.04687549279920
  H   3.16606424204734     -3.22311510535997     -0.10864091360915
