22
Coordinates from ORCA-job 6938optt
  Br  1.18251577848843     -0.30511564963375      0.24769866035434
  C   3.06896534447510     -0.14243362527093      0.12133930849833
  C   3.65846621055285      1.11781345338576      0.17234272269451
  C   2.95463032335372      2.43174941884133      0.30514159975181
  C   3.82779342343948      3.53492390737009     -0.26576815166630
  O   5.16257650411713      3.52289957298780      0.26525787864021
  C   5.81568270549789      2.36822527802060      0.23292372629341
  N   7.08760646697037      2.38837203024315      0.33663552479627
  C   7.80696648699360      1.20433445836253      0.31652245513328
  O   8.97820905946570      1.12450067104972      0.46423982873695
  O   7.11869408643977      0.00173765859587      0.07630916580909
  C   5.78698421939935     -0.03608789839435      0.04405332102664
  C   5.08213683051107     -1.24405968204763     -0.04918832709206
  C   5.70830512370277     -2.59335914341571     -0.19793657313316
  O   6.88374929926627     -2.79740408931524     -0.27799027965378
  N   3.75257336158000     -1.25440734266011     -0.00332133937966
  C   5.04581293011102      1.13577494450856      0.12492972851690
  H   2.73125011236202      2.61995469323707      1.35929158724995
  H   2.00285510634929      2.41502749115103     -0.22656916331394
  H   3.43985769267786      4.51977749811385     -0.02392792426642
  H   3.89872253466532      3.43960308513844     -1.35199183460321
  H   4.95364639958096     -3.39882673026806     -0.23699191439316
