23
Coordinates from ORCA-job 6946optt
  Br  0.82680207991923      0.23037695021532      0.23894670062748
  C   2.69924109139445      0.12155345691498      0.03416516531576
  C   3.34482685776351     -1.06793329982186      0.13211355092816
  C   2.64385922739289     -2.34420594152414      0.51861326492168
  C   3.63408439894999     -3.29785258641349      1.15918317403323
  O   4.67663802158454     -3.60958287274686      0.23783170232462
  C   5.38759459511534     -2.53706618703613     -0.24165055160043
  O   6.69376544879567     -2.54830235554405      0.38308370386960
  C   7.42464219862370     -1.44182490298602      0.21309482536219
  N   6.99997709258667     -0.29381445353005     -0.13192884660282
  C   5.61490914928893     -0.14266301242626     -0.15696915035098
  S   5.10927944876747      1.49889846355651     -0.23193187659205
  C   3.32117424152052      1.41662379025595     -0.23520404986344
  O   2.73282429860663      2.45112155662937     -0.39759170999061
  C   4.75745261090774     -1.18799828048198     -0.06265154017590
  C   5.65182123281137     -2.89083807301397     -1.72183717532321
  O   5.39024116612372     -2.16807626688610     -2.63217191020592
  H   2.19667875303407     -2.81140510461578     -0.36389685973606
  H   1.83352909385518     -2.12453242216601      1.21293780585756
  H   3.17065481765940     -4.25027226372731      1.40273173037190
  H   4.06055686245594     -2.86789833122630      2.07000227933074
  H   8.47313150685947     -1.60690530218658      0.43501668397581
  H   6.09931580598351     -3.89340256123922     -1.85088691647730
