23
Coordinates from ORCA-job 6949optt
  Br  3.83831191699037      0.10602740527960      3.73570024633177
  C   5.19026600529566     -0.88947354393077      2.90367978503674
  C   5.35335917487061     -2.32846059374428      3.24472202565206
  C   5.11480492833036     -3.25570667949919      2.11118249477809
  C   6.43457062419460     -2.93486197193231      1.25363426877975
  O   6.95967846545012     -3.84825727703752      0.67561117923808
  C   6.97592881470391     -1.61028346720273      1.51921164772302
  C   6.05246875909787     -0.53637133332007      1.96600418620788
  C   8.20078797073515     -1.65406128271560      2.17110917203596
  N   8.52044925695784     -0.74136854203871      3.06769239597531
  C   9.37393591105447     -0.97462406874681      4.08028876999694
  N   10.02062234629109     -0.17032808434032      4.81382080357762
  S   9.74221626284313     -2.72840361484425      4.57893564901296
  C   8.24430990964399     -3.58846382856913      4.74340688959065
  O   8.18872836565120     -4.78915340562656      4.77816058046445
  C   6.84646382211191     -3.02590391010270      5.10480929112472
  N   5.99115920828835     -2.65458206448560      4.28296435952123
  H   5.15848039794188     -4.30990291423702      2.36786010552368
  H   4.20457529231186     -2.99971712135492      1.57288718291783
  H   6.13833416419874      0.47758650324395      1.59542658187592
  H   8.81289298341523     -2.54564886934500      2.01722830874879
  H   9.89063595086311      0.77812469136399      4.45806751086192
  H   6.54901946875837     -3.23316602681400      6.13159656502457
