24
Coordinates from ORCA-job 6950optt
  Br  5.44284457747067     -2.15226912511463     -2.86530810240213
  C   5.98473600752524     -0.41451741816391     -2.46509632041547
  C   5.66164702324879      0.86015942162516     -3.19953461465023
  C   4.35239506060281      1.51973520769480     -2.67157356276182
  C   5.16646045393549      2.24124381561167     -1.59667825474041
  O   4.90496340730124      3.05578679804927     -0.77554041110441
  C   6.48141191659268      1.55986956880217     -2.01564643864242
  C   6.57267996056128      0.16004038448850     -1.41990210270509
  C   7.78847201591172      2.15734963587640     -2.37367432444647
  N   7.92305945226297      2.76638014828076     -3.46895620295807
  C   9.18255176125818      2.70115452421602     -4.09281054333817
  O   10.00556893462556      3.56774361153350     -4.14338883297383
  C   9.33887477132664      1.33941653721043     -4.69991054169727
  C   8.33415798418040      0.56366919707455     -5.10320877674246
  C   6.92889027371084      0.99471093415235     -5.44887445529648
  O   6.74989527819447      1.25465817072781     -6.61748605639926
  N   5.85453637887997      1.03517084727797     -4.59328544043832
  H   3.93025858019579      2.24982387444053     -3.36408897119052
  H   3.57573507427493      0.83736266882550     -2.33223459756291
  H   6.90347222364235     -0.18463781391051     -0.45183093835863
  H   8.65109734885380      1.83907490357522     -1.77916913723846
  H   10.36357455189581      1.00047700567981     -4.79554128962649
  H   8.56464333413559     -0.40969669448838     -5.52373232363745
  H   5.04307362941266      1.36229379653502     -5.10052776067320
