28
Coordinates from ORCA-job 6956optt
  Br  1.06654222132724     -0.01240866025490     -0.18018528770689
  C   2.95613752511107      0.03974100672904     -0.02039150080272
  C   3.61508217643328      1.27415739745604      0.00109174480568
  C   2.86129199856481      2.57868349341045     -0.03835497855616
  C   3.76323185551380      3.72706457233222      0.36954505959029
  O   4.96737257824621      3.68052573774692     -0.36561674495367
  C   5.76423954671985      2.59167845122577      0.01023262333504
  C   5.01117980119729      1.28076914745816      0.06727974140277
  C   5.68540658144821      0.06320737364257      0.16876400947892
  C   7.13683651997601     -0.22242357195044      0.30125572092240
  N   8.16601700293912      0.50769519588403      0.40187415101062
  N   7.23074499997132     -1.62508803898526      0.32521629762080
  C   5.94569778966682     -2.29877391846664      0.24743980706801
  C   4.99710181915272     -1.14196578761337      0.15368327052844
  C   3.62017205089215     -1.17263520231308      0.05143341222513
  C   8.39984947894736     -2.33166429067868      0.42583449535728
  O   8.42298748098522     -3.53709977094889      0.45396893739611
  H   1.99817787327641      2.52702078681803      0.62741877515162
  H   2.47357309645570      2.74927848194065     -1.04642802075974
  H   3.98251607862498      3.67894657215769      1.44457042167259
  H   3.30012376684474      4.68874822012963      0.15734730373986
  H   6.23284453122446      2.78518338963291      0.98758900528635
  H   6.55353400307841      2.52258271081556     -0.74023782970888
  H   7.94143729359213      1.49371891839518      0.38653363203225
  H   5.77899194199150     -2.91562113707772      1.13298525245549
  H   5.90584164342543     -2.95351237182590     -0.62565470497600
  H   3.06917552206798     -2.10300220626154      0.02784344675291
  H   9.28589282232569     -1.68880649939842      0.47196195963151
