29
Coordinates from ORCA-job 6960optt
  Br  1.57089771654901      0.42454560832120      1.18784967211748
  C   3.31001461146949      0.28498602963115      0.44043911375793
  C   3.87236365662996     -0.97811173000001      0.23134966301275
  C   3.13931881495778     -2.25032025623631      0.55898593280043
  C   3.82811901121408     -3.45210821578941     -0.06528065601637
  O   5.21538266405345     -3.42081914646591      0.19388200008806
  C   5.83825810461056     -2.37309034637319     -0.50146376578616
  C   5.16587114755455     -1.03543333530141     -0.28746030614728
  C   5.85101637648366      0.12960841011711     -0.60658801390084
  C   5.26425889559916      1.37261800225784     -0.40716548393575
  C   3.97819883112975      1.44919581793917      0.12528382314997
  C   5.95295425608106      2.64818771085730     -0.75898629186463
  O   5.38247729406099      3.71055186563411     -0.73996319130611
  C   7.42163158804489      2.60936960551246     -1.18369764318252
  O   8.24516964756162      1.84111315536503     -0.32043651098552
  C   8.37961581912041      2.32009323548648      0.94447977217824
  N   8.99068055518073      1.72705673286827      1.86070695056593
  H   2.10764213479269     -2.18483956277609      0.20854557733535
  H   3.09350890500109     -2.36571394865785      1.64573385633817
  H   3.65617597965229     -3.46634796983172     -1.14990673915106
  H   3.44805829812924     -4.38223882701394      0.35317142301468
  H   5.86147200593653     -2.59965221400511     -1.57740783284192
  H   6.86818613230101     -2.32718939843169     -0.14736777826010
  H   6.85979413907211      0.05749516175966     -0.99381921660741
  H   3.52512463872686      2.41847268107316      0.28232690691119
  H   7.76825177289393      3.64191668341068     -1.24752745877085
  H   7.50264869826159      2.14836377708675     -2.16887759115489
  H   7.91185874301399      3.29203089526066      1.11158655797173
  H   9.36504956191739      0.83425957830161      1.53760723066948
