30
Coordinates from ORCA-job 6966optt
  Br  1.44777243076289      0.59149942848589      0.40414309076184
  C   3.17431340481024      0.04667804853023     -0.11250627907424
  C   3.64048548657999     -1.22189564123313      0.11158565605800
  C   2.78302676683989     -2.26364711845561      0.78093440139061
  C   3.34085475699438     -3.66024337236627      0.57748982601440
  O   4.71290777751774     -3.69935334256312      0.90942251719129
  C   5.48560119379254     -2.98131171643412     -0.01545657930584
  C   4.95378112364176     -1.59214434481525     -0.26965257903119
  C   5.73889831338361     -0.66156455827510     -0.91048129194625
  N   6.99062580582057     -0.93920501028546     -1.38310577518766
  C   7.93299848048348      0.05338261079767     -1.85861484897275
  C   8.50745126062065      0.93984928946106     -0.75759666980653
  C   9.47598900120444      1.95663517462645     -1.29955655498253
  O   9.75209658725548      2.04959636687326     -2.46343957255030
  N   5.24944672776952      0.58725543675273     -1.11834483206418
  C   3.97767703999070      1.05620984576026     -0.74929086007119
  O   3.68655555806129      2.21045935724378     -0.99259319579034
  H   1.76369973752333     -2.20024205788651      0.39853183912168
  H   2.73227776475974     -2.03573841989483      1.84951961874328
  H   3.20322925939633     -3.98039970096156     -0.46377756508418
  H   2.84080525278733     -4.37773473920179      1.22548812860724
  H   5.54982749005887     -3.54875974373622     -0.95850082344248
  H   6.49116658595629     -2.93515060235384      0.41427155916642
  H   7.36177816797285     -1.84039744554420     -1.13893021402123
  H   7.47379444399909      0.66759544388514     -2.63594608794675
  H   8.74238542166909     -0.47377649882776     -2.36033617639706
  H   9.02982402293641      0.33874296081911     -0.00596500924683
  H   7.72270755516857      1.47297160819073     -0.20992938676229
  H   9.93398588157366      2.63376681999151     -0.55510819013839
  H   5.79303670066909      1.28192192141697     -1.61025414523254
