21
Coordinates from ORCA-job 6970optt
  Br  1.22232836876249      0.18119597455662      0.73263078122969
  C   3.00132296354190     -0.03138346147029      0.19100369465500
  C   3.58281980028956     -1.22909011667635     -0.00544344448078
  C   2.96434731298777     -2.55644499221046      0.01884427383029
  C   3.74485790683597     -3.63896419804655      0.18457398525053
  O   5.09050238059900     -3.60052048196045      0.24484638798885
  C   5.69725052811810     -2.42615268810848     -0.01908843769919
  C   5.02441375941011     -1.28232919872388     -0.17835527188527
  C   5.80088117627154     -0.05196858970009     -0.42432046812792
  O   6.96336678667348     -0.01926920534193     -0.68804054856215
  O   5.10221593717289      1.10445129876281     -0.32733799477883
  C   3.77659962794113      1.21244288435356      0.07562708158118
  N   3.29531424642096      2.34984384081613      0.29115715406054
  C   1.55297048004408     -2.80829219099807     -0.37498257162562
  O   1.00256787600746     -2.21626310732332     -1.26415080489914
  C   0.75322900136098     -3.91641915403987      0.32487428619296
  O   1.18793841256319     -4.62074651315604      1.18644246441414
  H   3.37019712565742     -4.64876024757717      0.25023495212846
  H   6.77289302485664     -2.50233467811511     -0.07688589658539
  H   3.99546871644934      3.07494322929418      0.14453388016278
  H   -0.27748543196407     -3.99093840433522     -0.06316350285013
