25
Coordinates from ORCA-job 6971optt
  Br  0.79699705033128     -0.30730404231781     -0.16165197725920
  C   2.67207160089288     -0.16046521461371     -0.10405769933514
  C   3.28105531792285      1.06552166479757     -0.08266144604829
  C   2.52653128221030      2.36735581657576     -0.06906395196481
  C   3.44744846884791      3.52498311932254      0.31453560924666
  O   4.62572058310047      3.47811253604227     -0.46627105224424
  C   5.43999557876570      2.39591061044341     -0.09038520347738
  C   4.70784186723650      1.07428147471364     -0.08422749235560
  N   5.46060664802378      0.01000338634171     -0.06846205118212
  C   4.85903025279295     -1.19706252502270     -0.06178781918807
  C   3.45168042863553     -1.34621102708180     -0.08840424566062
  N   2.87035592966919     -2.56646885001374     -0.09337053050310
  C   3.66951100025270     -3.59436918137469     -0.06893806583665
  C   5.08041303117834     -3.45022128855613     -0.04099150704088
  N   5.66452350360866     -2.28623467311928     -0.03791244720709
  C   2.79138994186422      4.81555452359536      0.11510730121601
  C   2.22063737359737      5.85547409941199     -0.03624812520017
  H   1.68921659191678      2.31062835605305      0.62768312978162
  H   2.10604772086076      2.56261546572817     -1.05903088639320
  H   3.71902932290560      3.43538650139945      1.37656139545025
  H   5.86966469301409      2.56198507330341      0.90699593198837
  H   6.25932455586558      2.33789629919068     -0.80398776651727
  H   3.21998964243083     -4.58133364351976     -0.07062798643040
  H   5.71378814885525     -4.33124671319876     -0.02292613921975
  H   1.72612946522044      6.78720823189934     -0.17487697461894
