24
Coordinates from ORCA-job 6977optt
  Br  1.08295352004552      0.27638808530462     -0.32740195769302
  C   2.92752099678010      0.07550741996101     -0.06121027866957
  C   3.51722210637037     -1.14044570070407      0.05012196843281
  C   2.72438856780655     -2.41691089662289     -0.02578814793595
  C   3.53632742109926     -3.70071969446134      0.02425680017916
  O   3.03831301876653     -4.73337245961597      0.38081378061558
  C   4.98039301377159     -3.60203264867105     -0.41071010839809
  C   5.68598567871257     -2.50865290930163      0.39224913813625
  C   7.11652534549970     -2.28453857548850     -0.09008102873415
  C   7.74669345775255     -1.05305414906059      0.50786493127660
  O   8.86368902760862     -0.94502940624832      0.88200039741829
  O   6.92852303544708      0.06680804005323      0.57027725316019
  C   5.60988190589444     -0.05265893315108      0.33387500919793
  O   5.05738527113884      1.14095932925590      0.21632077561747
  C   3.68348668217799      1.31719008660567      0.00696499725397
  O   3.28292569930450      2.43131099231821     -0.09573508755270
  C   4.93290407697480     -1.21418158831064      0.26116759210653
  H   2.15747985612554     -2.42922404198108     -0.96372132364808
  H   1.97250044379875     -2.44952167979701      0.76515563805971
  H   5.00211137889913     -3.32925588396993     -1.47206514181781
  H   5.45399313551857     -4.57406002441511     -0.28349087779013
  H   5.71077834425502     -2.81810367447120      1.44350201305210
  H   7.10759039942439     -2.13424515443390     -1.17525541305982
  H   7.76942761682755     -3.12515653279430      0.13288907079273
