28
Coordinates from ORCA-job 6978optt
  Br  1.14088461217900      0.60473911067390     -0.18828710917747
  C   2.32552561133711     -0.81000461214653     -0.59795148645701
  C   2.83489646432262     -1.61608455934164      0.34543780307545
  C   2.13922276195070     -1.95971414643590      1.63752390446062
  C   0.70075478723043     -2.48137100155425      1.42449970399780
  O   0.64196551740883     -3.69206047440676      0.67054714026284
  C   -0.48869235990124     -3.84644873094604     -0.19447530894005
  C   -0.09529094604787     -3.31229591269379     -1.54649572253246
  C   0.35086860325567     -3.90091792072486     -2.70081916812198
  N   1.18581305850973     -2.97191350119939     -3.29361515055270
  C   1.25450819117058     -1.89263447339266     -2.45521359670236
  N   0.39390681264157     -2.04888137427604     -1.48292404539264
  C   2.50314454950254     -1.20191353159781     -2.01602038619132
  C   3.69870032614913     -1.74270863612155     -2.31161774887568
  N   4.60384715621206     -1.93958510957871     -1.28997275986638
  C   4.12740017744729     -2.24802592259380      0.00461027838093
  N   4.79063130914601     -2.89596958292366      0.87460616804308
  H   2.05919495990668     -1.08287868557638      2.28626764464286
  H   2.74142702007948     -2.70079129879879      2.16083158779734
  H   0.10534572123364     -1.71353732082824      0.93282805736141
  H   0.27204961785416     -2.66726536044766      2.41582798597829
  H   -1.35164386470349     -3.31219465798935      0.21119290239158
  H   -0.71832030795619     -4.91049696036804     -0.23247340933008
  H   0.17904458369125     -4.86774420772657     -3.14151262645529
  H   1.74121268463061     -3.13320514499066     -4.11545801009032
  H   3.92271391541455     -2.21572213696031     -3.25987416593402
  H   5.50769556624829     -2.31845698816120     -1.52283934279699
  H   5.69719347108685     -3.20191685889329      0.52737686102454
