21
Coordinates from ORCA-job 6979optt
  Br  1.03620514253338      0.26351903850296     -0.16176569261255
  C   2.89394308091229      0.06961510231591     -0.03248782515313
  C   3.52740216592973     -1.08770275021038      0.26363824567582
  C   2.83368903468003     -2.36346005030080      0.65435050971312
  C   2.89219285892574     -3.39333243209503     -0.46011641187966
  O   1.94545386864069     -3.63907082182033     -1.15148172496635
  C   4.20059175115305     -4.14809056359625     -0.66256864035830
  C   5.41825722505281     -3.49640166831406     -0.11796673103770
  C   5.74818789754928     -2.22344253800100      0.23454839545528
  N   7.07820699151832     -2.25541497356762      0.60496756338774
  N   7.52776593433756     -3.40346301240486      0.51047016229883
  O   6.49769430894787     -4.24573324786420      0.03706608978356
  C   4.96581637248098     -0.98994333099788      0.17562512914076
  N   5.62418195139408      0.11115769652512      0.00913402589881
  C   4.94728957346105      1.29522427987632     -0.09786800002219
  O   5.39645117980407      2.38862728323101     -0.10624746018021
  O   3.53095624718013      1.19536086804023     -0.26906433215085
  H   1.78630861076766     -2.17315286393101      0.87172037963107
  H   3.31380860014585     -2.77139143763095      1.54845900927404
  H   4.32146146169488     -4.33945782419305     -1.73045079271955
  H   4.08313574289050     -5.12644675356410     -0.18596189917854
