24
Coordinates from ORCA-job 6980optt
  Br  1.17650480774510     -0.49907968566472     -0.25805727402027
  C   3.00576867774912     -0.07180929302203     -0.24461564345708
  C   3.50239119456458      1.17872341565150     -0.32473602783601
  C   2.65192729435133      2.40413377175509     -0.51394032130130
  C   2.73384426894579      3.30012283856150      0.71000805413470
  O   1.91594930411513      3.24314708111412      1.58638754871535
  C   3.87923458603629      4.28947716704343      0.75692939918280
  C   5.16872237521549      3.84274046884597      0.14353677211340
  C   5.56868689418832      2.60075363580608     -0.26567445467920
  O   6.86272403760539      2.64826535839459     -0.68073975454210
  C   7.28662435431285      3.91693373226540     -0.54578170747895
  C   6.30147257277602      4.69549159813838     -0.04645389249606
  C   4.94684243793295      1.28362530735179     -0.26992896981145
  C   5.72275005148423      0.17307317830825     -0.22271851971888
  C   5.14959856983577     -1.14831512382847     -0.18313763692358
  O   5.71220579882755     -2.19896781729788     -0.14922310922391
  O   3.74614554806547     -1.17104263856420     -0.16000150684551
  H   1.61167114919103      2.12768356851633     -0.65670384015894
  H   3.00768022318438      2.95028099212709     -1.39168652748167
  H   4.02512390654987      4.58616073395667      1.79661654409388
  H   3.52768063605178      5.18241820937219      0.22564837054109
  H   8.29966864573134      4.11515010036278     -0.85038005446475
  H   6.35999480981683      5.74878006581175      0.17226053284564
  H   6.79978785572331      0.22925333499436     -0.18960798118722
