25
Coordinates from ORCA-job 6985optt
  Br  1.15185710387601      0.06357083639806      0.04726560458300
  C   3.04870759333705      0.08791223759059     -0.06895934940447
  C   3.69665447861448     -1.13255070749765     -0.25893580664329
  C   3.05200874247874     -2.48798129952712     -0.30311597852675
  C   3.99074230993907     -3.65526078301217      0.02571109791591
  O   3.56645541320533     -4.77727867756523     -0.00336387744235
  C   5.44160159354646     -3.36270903509669      0.39107729039227
  C   5.97000109834496     -2.25151158355544     -0.51133077185760
  N   7.25785382845578     -1.67113223643563     -0.18726501341798
  C   7.24976379226464     -0.29067886544665     -0.10334679610485
  O   8.21206049631813      0.42081286406018      0.01520625112425
  C   5.80210254551256      0.08740164336006     -0.15621489738313
  C   5.15509926871822      1.28686799305186      0.04376275343818
  C   3.75797550196343      1.29082895990497      0.06164348631019
  C   3.08825863037349      2.61043475859491      0.25988945183776
  O   3.70548550974977      3.61689812279372      0.47746254079914
  C   5.07129578718877     -1.06511730384426     -0.35616716462870
  H   2.62458540107920     -2.69663366939939     -1.28880118834053
  H   2.21499518498855     -2.54988385956905      0.39483394353310
  H   6.00463250557702     -4.29093137342539      0.31540710818155
  H   5.47124480993615     -3.01603201957294      1.42911201732844
  H   5.95822892145475     -2.60155770855368     -1.55133729522771
  H   8.13030311944826     -2.15256527977256     -0.33488193596046
  H   5.68438089972489      2.21809548287996      0.20191890899247
  H   1.99070546390421      2.62300150363957      0.19042962050156
