24
Coordinates from ORCA-job 6989optt
  Br  1.06469700193432      0.01285169694606      0.49674644435460
  C   2.90524359432140     -0.08703541685811      0.16517650914398
  C   3.51149117142683     -1.25667090892313     -0.11378578450280
  C   2.91204033033621     -2.62827687114412     -0.12485035795134
  C   3.90564226870640     -3.77243274161329      0.13867263332516
  O   3.49356787736389     -4.89723245767889      0.19083130970435
  C   5.38990402211749     -3.46920273084416      0.35570901283842
  C   5.84576468389418     -2.32980976543160     -0.54018327541875
  O   7.12693887985500     -1.78930025818927     -0.17162673343425
  C   7.07922147204231     -0.37254967285881     -0.11779485694224
  C   7.75991534822615      0.24547925641010     -1.27719268301363
  N   8.27597028734317      0.74769386443787     -2.16733606428146
  C   5.60009157463681     -0.07788315073317     -0.10410988257821
  O   5.05091027379030      1.09642107533715      0.20370893086722
  C   3.64891085249187      1.18961922730769      0.23978321595377
  N   3.09987922885903      2.30791865505268      0.37252935918128
  C   4.92093240851016     -1.18576975362992     -0.34457125555366
  H   2.45587757959887     -2.83704110578842     -1.09845786160501
  H   2.10520530152424     -2.71756168128332      0.60397482202710
  H   5.94966760525804     -4.39025005919394      0.20996607858887
  H   5.50514748202469     -3.15064409693816      1.39764737063341
  H   5.89473203882854     -2.66290598367272     -1.58271786805597
  H   7.57845060380063     -0.02518849108706      0.79008002241023
  H   3.78279811310940      3.06077137037657      0.41980091430891
