29
Coordinates from ORCA-job 7024optt
  Br  1.38100967716027     -0.59543675152375     -1.68681952345044
  C   2.98881703257241     -0.27754628892967     -0.74679990732501
  C   3.52362577714301      0.97019393217086     -0.66261414045264
  C   2.69420138420730      2.21603985144162     -0.72695067368534
  C   1.57497832926165      2.12373155919042      0.34964587021813
  O   1.99869871779696      1.91326351611187      1.67234332084428
  C   2.43948810417005      0.62279048084340      2.11332324470344
  C   1.50047736921723     -0.56863910052214      1.84491012233582
  C   2.21949253103437     -1.92870811692325      1.81454128190904
  N   2.79868007605639     -2.33749567484727      0.50207294430772
  C   3.63756570521994     -1.33012886652276     -0.02170071562731
  C   4.95047277848879     -1.20644874114611      0.30789852746736
  C   5.67003602056491      0.02964398554941      0.08925809595644
  O   6.84648633179711      0.24172981353033      0.29141230848558
  N   4.81101803687880      1.09209712336904     -0.24453471042018
  C   0.84030168579673      3.40109733821930      0.34267720433967
  N   0.28685221269016      4.40134042386155      0.28179692714673
  H   2.21498144739612      2.33257346317968     -1.70002748750476
  H   3.30749072647212      3.09703463560408     -0.53821030126439
  H   0.86841133119052      1.35429975921887      0.03538217416417
  H   2.53784235217174      0.75880272507652      3.19001002265765
  H   3.44123897915789      0.42418478216801      1.73673495798225
  H   0.93069472674799     -0.44930636101812      0.92750053178207
  H   0.76340009091751     -0.61075323451934      2.64779573549220
  H   1.50788398001592     -2.70816817468356      2.08256077183052
  H   3.00746246107732     -1.91816313825612      2.58047628805051
  H   3.32588603022575     -3.19079292718335      0.64662011267820
  H   5.46312573038228     -1.96951559221950      0.87897335484172
  H   5.22638037418870      2.01127957875995     -0.17027633746346
