16
Coordinates from ORCA-job 70optt
  S   -0.46528248250944     -0.34048018305775     -0.01976855473653
  C   -0.08199416061745     -0.16387267445840      1.63671698584495
  C   1.24293493648726      0.08760734241848      1.82079082646766
  C   1.95844574010766      0.14938608272308      0.59766370877159
  C   1.16475406463505     -0.05778389736832     -0.49792788766526
  C   1.53922477235598     -0.05802570479640     -1.90193334681131
  H   3.01672742453647      0.35839958952111      0.52327315451424
  H   1.69216210995683      0.23017870212122      2.79265986900447
  H   -0.85266432317773     -0.26037874818633      2.38377465191557
  S   3.16935422943242     -0.34043993907120     -2.37992940370882
  C   2.78606872212561     -0.16457784501923     -4.03648922180963
  C   1.46103506498193      0.08623648394351     -4.22072372117257
  C   0.74550110650402      0.14847427148625     -2.99763469552311
  H   -0.31283890363673      0.35721576058317     -2.92331395241303
  H   1.01178312835050      0.22820028355098     -5.19266966898120
  H   3.55678857046760     -0.26113952439017     -4.78348874369702
