23
Coordinates from ORCA-job 7185optt
  Br  1.31668826342588      0.63951933181575     -0.90004389822478
  C   3.14826515970756      0.35626009389312     -0.54502696328192
  C   3.70490278136712     -0.91964210483201     -0.59181532749403
  C   2.90414961351332     -2.13733644084118     -0.99891861869008
  C   2.12282884118719     -2.81556967120547      0.13616139402465
  O   0.93240269353463     -2.82005564235398      0.18277893520152
  C   2.96953121160039     -3.57771710298654      1.19550062351435
  N   4.29955570351281     -3.01514500907861      1.32181886964801
  C   5.15248818223777     -3.28283411813098      0.26735372832042
  O   5.35183490172513     -4.36572581771234     -0.18471717751816
  O   5.76032428507625     -2.17687278285613     -0.26088443726075
  C   5.06644679189249     -0.98404574953310     -0.26933876550392
  C   5.78199880032251      0.16358036425643      0.02691326222147
  N   5.22641661237967      1.36825762272013      0.03339729682105
  C   3.93449488561385      1.46308143452967     -0.23703789153087
  C   2.28713452236869     -3.61552021462130      2.48935106061539
  N   1.77243175191005     -3.61375417241042      3.51086113248128
  H   3.56555470678350     -2.87532364635444     -1.45986425504204
  H   2.15833170586148     -1.84793189773360     -1.73546301830383
  H   3.07831310847769     -4.60248434083906      0.82571985781804
  H   4.30903167700298     -2.06587944768691      1.66779725536629
  H   6.83725954036065      0.08589139902474      0.26105311808419
  H   3.48961426013832      2.45024791293623     -0.21059618126628
