22
Coordinates from ORCA-job 7189optt
  Br  0.97922866657036     -1.50816734804705      1.95806410480751
  C   2.36098534762428     -0.71541468556092      0.98240232479024
  C   2.30195513610980      0.57861004343805      0.65241394022812
  C   1.29832608505009      1.62881045657950      0.88388682082498
  C   0.83855297740825      2.12449924247032     -0.26865497788822
  O   1.16705637142848      3.41482813192383     -0.56639230926020
  C   2.54270199130676      3.58418148323199     -0.30750739633333
  N   3.01282945701206      4.70900586055871     -0.02606595921260
  N   3.40727931041020      2.49167865010815     -0.49551078537817
  C   3.37788242302512      1.28149217912693     -0.13048834944412
  N   4.46030198000008      0.44594434878361     -0.48635217572011
  N   5.53663615539947      0.84703393066566     -1.17843411117903
  N   6.30420728970646     -0.17171355546236     -1.31720019110235
  C   5.74506722467222     -1.25795189506367     -0.71705179967154
  C   4.54999681778473     -0.87784760205681     -0.17471142800089
  C   3.50061513263320     -1.57391895752405      0.57821578343232
  N   3.51266552638271     -2.80419000232010      0.87810303606860
  H   1.59689532589970      2.36610080454048      1.62672935865518
  H   0.50254452408989      1.53334953086168     -1.11462445791014
  H   2.26394215123577      5.38857391607582      0.08916672906280
  H   6.23486599741963     -2.21639128798506     -0.71884128321473
  H   4.35246410883069     -3.26651324434472      0.52985312644569
