23
Coordinates from ORCA-job 7190optt
  Br  1.25819275682422     -0.08392120690411     -0.75040044804681
  C   3.09927793663998      0.00999637418917     -0.32453728558534
  C   3.68198362236864      1.17251024465110      0.19533962624655
  C   5.07008446671630      1.20031700426933      0.30259734917090
  C   5.70159938674338      2.51999001636459      0.65010576175675
  O   5.46497268029918      3.43384661724037     -0.41926361090756
  C   4.27597682366133      4.06866228694900     -0.50867136425273
  N   4.08588228064123      5.07802143432458     -1.23568496997996
  N   3.24405877968130      3.61447044071333      0.30977545809236
  C   2.87883730485050      2.32606787443183      0.70084730120835
  N   1.91798766414036      2.07518106351317      1.48284978143518
  C   5.79294023680878      0.05001867652403      0.00750971408385
  Br  7.66854777026403     -0.01545956539633      0.18629715121109
  C   5.10529605855384     -1.08539991801769     -0.42920784693823
  N   3.78466657233178     -1.06639886442764     -0.61693745265400
  C   5.78357823756325     -2.31111954109170     -0.72564959034167
  C   6.35149484675846     -3.33542661898134     -0.97242911469671
  H   6.77962498213891      2.44174678004472      0.73002998619059
  H   5.30090753970846      2.91511245696794      1.58564630658490
  H   4.95202656119441      5.37114515714950     -1.67848200677686
  H   2.51146441494286      4.30614775772085      0.38586877743071
  H   1.43929976907079      2.91737527020389      1.80071494773108
  H   6.85529930809795     -4.24688374043859     -1.19131847096245
