23
Coordinates from ORCA-job 7195optt
  Br  0.98050167490248     -1.35838907899481      1.05566135025915
  C   2.73606363570766     -1.24293886189804      0.40377772947473
  C   3.60965573162118     -2.26419005241302      0.25994129866710
  C   4.94817424257136     -1.90687677654243     -0.29075078131876
  C   6.08478239214202     -2.60589596277491     -0.19135986417371
  O   6.19632473538746     -3.73483913430711      0.58059399319694
  C   6.81401431853617     -4.86350124248300      0.04810527551035
  N   7.54584811762603     -5.58365167681201      0.76959695415424
  N   6.60164174837846     -5.20116560625472     -1.29805884009930
  C   5.47299574761449     -5.11160962534408     -1.87998836308889
  N   4.36157910938031     -4.49408145454308     -1.34464030487290
  C   3.95663080208738     -4.73001402441240     -0.17854299253874
  C   3.20575486828358     -3.66190365763878      0.57433578690540
  O   2.38767104128396     -3.97552538605439      1.40088474055774
  N   5.05749340312747     -0.69434955883527     -1.00280128968251
  C   4.16885008613203      0.18526566868179     -0.83190679354746
  N   3.06280761691688      0.02111127681127     -0.01049018872322
  H   6.98036734414020     -2.26885549062337     -0.69711139780561
  H   7.60104539110921     -5.19411561358077      1.70860002533401
  H   5.40191014711414     -5.40674554344538     -2.92234523444142
  H   4.21174255020153     -5.62787007640562      0.39168929693125
  H   4.22610191608436      1.14228848422781     -1.33900971844000
  H   2.35904337965159      0.73985339364237      0.03381931774162
