24
Coordinates from ORCA-job 7198optt
  Br  1.16855489682657      0.39766655168840      2.41325481463489
  C   2.16178030087227      0.63857804405814      0.84049026183771
  C   3.14597470695413      1.54547882345980      0.70343064951097
  C   3.18370250014306      2.84583094401350      1.43529499297866
  C   2.38496516231644      3.82866981407460      0.54872543194536
  O   0.98018706643920      3.75946723115030      0.77669886788060
  C   0.15098210052847      2.81519710810479      0.29710215731505
  N   -0.84937990990373      2.50577043273708      0.98717498016783
  N   0.45774688201514      2.30984646499714     -1.01090563257197
  C   -0.04975691182944      1.06480355966735     -1.40305424149670
  O   -0.70822365472932      0.87207657316927     -2.36841614607830
  O   0.31368494506374      0.03608545969368     -0.54892876097932
  C   1.68650879829722     -0.01615372558629     -0.37976589474922
  N   2.36984356978911     -0.38799112086961     -1.37473535332363
  S   4.01706132239546     -0.08466878339805     -1.36991996529114
  C   4.10643974953124      1.40721760420458     -0.41650313846475
  N   5.00936630505020      2.28152312247789     -0.59086540166616
  H   4.20482778669636      3.21095765494703      1.52247601514384
  H   2.71836356914332      2.78655012026457      2.41665394903010
  H   2.62089584309447      3.67256453363959     -0.50450981561061
  H   2.64427831055675      4.85100397563350      0.81456057842702
  H   -1.48323972547343      1.88099937796298      0.49753408037456
  H   0.34918867832686      2.99886130550267     -1.74655141039787
  H   5.61624770789589      2.06766492840705     -1.38124101861691
