23
Coordinates from ORCA-job 71optt
  S   -0.59301385191953      0.37970763086199      0.06644069543858
  C   -0.28202386576899      0.25777451783554      1.74294724310752
  C   1.02965604637697     -0.00592460472850      1.99332072984407
  C   1.79528364739001     -0.12265617362012      0.80582327365167
  C   1.05109327104946      0.05522224415434     -0.32978723229589
  C   1.48970818645870      0.00031094974427     -1.71153109349511
  H   2.85214811229237     -0.35045782257343      0.78402626745692
  H   1.43525221805474     -0.12021004441476      2.98785668537372
  H   -1.08174117115292      0.38987033011577      2.45320560729365
  S   3.15067363709487      0.23275365187019     -2.11031639435238
  C   2.85712702276260     -0.00602834687670     -3.79214670696192
  C   1.52619184506522     -0.22613497869583     -4.02264272270928
  C   0.74917066332207     -0.22289162197363     -2.84018563427218
  H   -0.31624463057725     -0.40567869146725     -2.81509743405734
  H   1.12408963934010     -0.40833453644716     -5.00979339802620
  C   3.94835616045374      0.04887231541961     -4.74654444925106
  S   3.64648199327063      0.30551634673054     -6.42314321892225
  C   5.31067169209544      0.22636687025520     -6.80391514915898
  C   6.07132202883492      0.02403245461344     -5.69321963195676
  C   5.29175052690066     -0.07832894774478     -4.51338254495005
  H   5.70228496732046     -0.25556725048554     -3.52879845154350
  H   7.14826220716880     -0.05452294189189     -5.71603738732626
  H   5.63749965416689      0.33530864931871     -7.82507905288694
