27
Coordinates from ORCA-job 7202optt
  Br  1.40932045833484      0.54810869799374      2.44074124466502
  C   2.46241787814709      0.51659537558116      0.87271329940332
  C   3.42426676505765      1.48885720709177      0.64027994452696
  C   3.24533338495784      2.88709838371361      1.15355939454167
  C   2.18086599303207      3.56596751538979      0.26119771600929
  O   0.85014035090800      3.21066512174728      0.61993074466837
  C   0.10276081997838      2.26876619622718      0.02005036805679
  N   -1.04883953976109      2.05372485907401      0.47400790072225
  O   0.73211263432052      1.67829422061949     -1.02391056560089
  C   0.30729369813716      0.38027097049650     -1.44674123136954
  C   0.76528311373667     -0.73922800651587     -0.47936752863360
  C   2.18987162616259     -0.39268137098010     -0.15987805496306
  N   3.07959434068684     -0.64057969532211     -1.10952733769329
  C   4.19922478437842      0.08140577204616     -1.12901659377315
  C   4.36012501688143      1.22110454831494     -0.35704383605669
  C   5.20327935316080     -0.28086622024184     -2.10060233445144
  N   6.02415340409934     -0.53920107109892     -2.85772620506426
  H   4.17484026642275      3.44815775292163      1.05044577389245
  H   2.92576998350700      2.92831102792888      2.19302634143776
  H   2.37214254364575      3.34967046704056     -0.78954394434471
  H   2.22704552943263      4.64302675271737      0.41629281526609
  H   -1.54977659337012      1.34431692895127     -0.04670022837842
  H   0.79633123314856      0.24294129314601     -2.40842299739408
  H   -0.77245054918637      0.35355092003380     -1.59954134016180
  H   0.70110380607422     -1.68914746197081     -1.00818558676405
  H   0.13505916124183     -0.76838426725564      0.40600921565045
  H   5.16773053686518      1.91225408235010     -0.56004697419141
