27
Coordinates from ORCA-job 7203optt
  Br  2.78198737920683     -1.36004430526150     -0.47573367004361
  C   2.65645130569782      0.37230063088827      0.25028344178830
  C   2.43861971760114      1.48225156077523     -0.49832267152099
  C   2.18473490641915      1.44144080910123     -1.97912324554023
  C   0.68436982959698      1.30053170292995     -2.25493003761603
  O   -0.02318305683265      2.45245312196669     -1.80547489988657
  C   -0.44968669480009      2.52266008847631     -0.52853196531310
  N   -0.75820837929636      1.61505283254365      0.28305621619483
  O   -0.50099046073096      3.83012978905665     -0.22429071127021
  C   -0.57750143842148      4.20735955056950      1.14809936067820
  C   0.76435566688094      4.70585566606904      1.66791077567789
  O   1.57966881782259      3.69068378550393      2.25933890977801
  C   2.06948902446424      2.72847121588696      1.49028136967322
  O   2.34869327392403      1.66643267733282      2.23373656173932
  C   2.74911098029683      0.44099959108737      1.69913040854391
  O   3.07911791066614     -0.41004042284383      2.46327225088645
  C   2.24766191632781      2.73904363052935      0.15114013793939
  H   2.70141517163190      0.60433640897711     -2.44594791028864
  H   2.53359573666336      2.36747521687934     -2.43833541835996
  H   0.29074830671954      0.38666265554900     -1.80600004537893
  H   0.50742450056866      1.25503052682496     -3.32750672361963
  H   -0.66938831081514      0.68012347107653     -0.09522768679784
  H   -0.94704429144001      3.38018763614688      1.75285264046820
  H   -1.28559572542914      5.03433762274653      1.18905981012714
  H   0.59044422387429      5.40085406526634      2.48666830312629
  H   1.31021863410601      5.23019711419394      0.88060215471824
  H   2.02549105529755      3.61721335772768     -0.43200735570365
