25
Coordinates from ORCA-job 7209optt
  Br  0.98588835325379     -0.03090494330339      0.04392607258132
  C   2.87864188409793      0.05006530095116     -0.04100133692354
  C   3.52311415003340      1.27948860368781     -0.22596841475235
  C   2.81013812883424      2.58671501066177     -0.42976262663406
  C   3.60337030301770      3.77361646224506      0.07907208986387
  O   3.09686107014586      4.82446463676722      0.35895185612513
  C   5.09311349943782      3.55113868328807      0.24313225984456
  O   5.57709736705484      2.44761607874382     -0.49678435302787
  C   4.91000558283353      1.28370333338104     -0.28609558452097
  C   5.66284949789887      0.10113676291993     -0.18147123793662
  N   7.04821302045932      0.18474393530962     -0.24721362059688
  C   7.68289337745949     -0.91716478177753     -0.16037797401968
  N   7.10869444810293     -2.14958836323130     -0.01246037489003
  C   5.73180553427896     -2.35859391292396      0.07556417346122
  N   5.16742656018718     -3.48713316179610      0.21552569558679
  C   4.97072058822237     -1.10241847426255     -0.01720030773715
  C   3.58061068006289     -1.12939206874100      0.05801146148152
  H   1.82638667366263      2.60567421390152      0.03446577745504
  H   2.65543380810794      2.75314464513196     -1.50309845866950
  H   5.29135408728709      3.40475189917168      1.31184187177966
  H   5.63228535465975      4.43306140059349     -0.09442391952488
  H   8.76734216172383     -0.92036174763435     -0.20206247003310
  H   7.71010045412368     -2.95685606757046      0.04582146150906
  H   5.83094059581028     -4.25714503871632      0.25852516253983
  H   3.08171281924365     -2.07876240679722      0.18908279703863
