23
Coordinates from ORCA-job 7210optt
  Br  1.02544429336144      0.13820113307811      0.04786667940748
  C   2.91623299840490      0.04719270421922     -0.02273564349428
  C   3.56205853679733     -1.18871839454381     -0.02664227381251
  C   2.85672924741826     -2.51217263711623     -0.02878791179608
  C   3.74658162564870     -3.54860645259408     -0.68104126424921
  O   5.03057684609891     -3.61272026281311     -0.05979381786810
  C   5.72063737043834     -2.47310267439471      0.11060534498649
  O   6.88011769630095     -2.50815297874835      0.39835020915165
  C   4.95814553343087     -1.18789558534544     -0.01775099032152
  C   5.68708181066468     -0.00636040478224     -0.04168652645644
  C   5.01628713144885      1.20597736889724     -0.07821932893023
  C   3.62262200101635      1.23374011730520     -0.05932763013435
  C   5.76165889537178      2.46292343068774     -0.12563452445555
  N   5.24035456341773      3.64675296112540     -0.16108014084302
  O   6.28883367116994      4.47786632813335     -0.20381188959193
  N   7.43924240165066      3.75154213869729     -0.19222810361527
  N   7.14363858043316      2.54370852506161     -0.14563703150824
  H   1.91580763353721     -2.44733315384492     -0.57498962461816
  H   2.61529964244062     -2.80757791986221      0.99673287898977
  H   3.88209502335195     -3.32114276887055     -1.74186622761663
  H   3.33162421395648     -4.54909475491536     -0.58932453930396
  H   6.76796639642631     -0.05020053857139     -0.02194351024260
  H   3.09896388721449      2.18017381919723     -0.07205413367729
