24
Coordinates from ORCA-job 7213optt
  Br  0.89970253668790     -0.36910119142007      0.25126079029245
  C   2.77709686274872     -0.18557984621848      0.11444877710001
  C   3.55031212558962     -1.34547085320240      0.10439968164833
  C   2.99311742029448     -2.73757179005864      0.09117928497230
  C   4.00048738669724     -3.67158081495757     -0.54773066318016
  O   5.28446444053873     -3.59419744327363      0.07240930028928
  C   5.84121362394009     -2.38108941620865      0.23889572607042
  O   7.00207662573222     -2.28071220121506      0.50868525819975
  C   4.93271820386930     -1.20401310034964      0.12737971019572
  C   5.48131745173600      0.07498711379138      0.14467982266091
  N   4.74732957221571      1.16571494623475      0.09486399174999
  C   3.40907589943490      1.06285503191692      0.07060800580715
  C   2.75669751790218      2.36581156840282      0.00570204730702
  C   3.27743088894558      3.60947737944741      0.16863165142050
  N   2.28412377980884      4.54427045213613     -0.02688225583268
  C   1.23957910235603      3.84379159156063     -0.30018149066678
  O   1.43880498103166      2.51781125607166     -0.29875935015212
  H   2.05913378220034     -2.77565787132070     -0.46857897235025
  H   2.76768392585390     -3.05135512353639      1.11482144590677
  H   4.11124800688503     -3.43607201098792     -1.60975938314661
  H   3.69594756662773     -4.71067225977114     -0.45320310309022
  H   6.55707952697060      0.19370799702205      0.19509376740851
  H   4.29179800550332      3.87367077460923      0.40856533278065
  H   0.24356076642979      4.18597581132730     -0.52752937539095
