21
Coordinates from ORCA-job 7216optt
  Br  1.18009161383928     -0.52248990361507      0.35599251888144
  C   3.00284084140472     -0.15668459216612      0.16998948329268
  C   3.59412727704887      1.06601750959444      0.09068284910183
  C   5.05644862708832      1.09059492390939     -0.00855054453261
  C   5.72912135131379      2.24210643629421     -0.02364828261266
  O   5.11125570382991      3.45920123549736      0.08497301018473
  C   3.77589462780059      3.60104672937520      0.18917581044782
  O   3.32065365997607      4.69514773648372      0.34026385046465
  C   2.90168089040633      2.36047291216433      0.09030352069163
  N   1.64016210193929      2.43412957719195      0.00620309386747
  C   0.89049370388023      3.66852381356944      0.02269153471949
  C   -0.53758486923350      3.36398357453242     -0.15762399448985
  N   -1.65334638995135      3.14844632676500     -0.29549664562287
  C   5.69767583795803     -0.21737566042846     -0.09176726737720
  Br  7.56807146365983     -0.32186320942872     -0.30684580415273
  N   5.08726185400550     -1.32869785365150     -0.02609439510052
  N   3.74616378004115     -1.29283687427839      0.13071026297999
  H   6.79757023118245      2.33933432290158     -0.11232824068406
  H   1.20316779352894      4.35956485504900     -0.76321169926483
  H   1.01510504035053      4.20614406281118      0.96479541811461
  H   3.30014485993099     -2.19376592257100      0.18078552109099
