23
Coordinates from ORCA-job 7218optt
  Br  1.04647130808398     -0.06780726271499     -0.05589452250357
  C   2.90753672200600     -0.23048877432248      0.03317272359948
  C   3.55931039228944     -1.40368982406628      0.20935866117117
  C   2.89458133428992     -2.73378698300704      0.40679011563850
  C   3.25976451788724     -3.77389888501920     -0.66582077722908
  O   4.55725852076351     -4.32904371200874     -0.44915892817228
  C   5.63617644557060     -3.48008507374177     -0.59364062587500
  O   5.72493300638375     -2.48811218894902      0.40006431639071
  C   5.00077382540625     -1.33914976082742      0.22237052659567
  N   5.68571210798313     -0.26354283849387      0.11669106154623
  N   5.00329284600570      0.87082145552105     -0.00513956644542
  C   3.63641373398730      1.04113449198279     -0.08511210476093
  O   3.14365772265677      2.13608123377087     -0.22414096329214
  C   5.66856966756944     -2.86488759032550     -1.95209372250332
  N   5.67365596289298     -2.40981886431234     -3.00204751260186
  C   2.31315907352854     -4.88590694424890     -0.63211188122563
  C   1.50535226277949     -5.76589506226572     -0.59091715809024
  H   1.81566051787554     -2.60659425001159      0.40734205880146
  H   3.19031020889234     -3.14832478979968      1.37381536564566
  H   3.22582852961056     -3.31035644054354     -1.65952038324013
  H   6.52076411029492     -4.10021370590026     -0.46697578821421
  H   5.56487492404529      1.70734672522161     -0.08515159191310
  H   0.79394225919721     -6.55678095593793     -0.55987930332198
