24
Coordinates from ORCA-job 7222optt
  Br  0.87759654343515     -0.12566363366288     -0.02278268341861
  C   2.72837022978406      0.00494059018978     -0.27248900027865
  C   3.30390920060336      1.13153522694319     -0.73112113201656
  C   2.87904601004503      2.58058665007119     -0.84225104067612
  C   4.12312425492192      3.32871131903769     -0.26383623719248
  O   4.14070882470542      3.19366184373022      1.15439198521643
  C   3.46275994631246      4.11744551303127      1.84750903999210
  O   2.84492183583137      5.01903818525063      1.36981643156289
  C   5.32056770348328      2.50050632473613     -0.79574645022509
  O   6.49048637901601      2.37129503226069      0.00708469479689
  C   6.61551853440984      1.08595987739104      0.47639218070923
  O   7.46986549160132      0.73719217333852      1.22513386704412
  C   5.45543134203666      0.31088222020795     -0.04901870921864
  N   4.90998964597762     -0.84174445810850      0.41022849872450
  C   3.54965149053390     -1.15633922275038      0.17453760064561
  N   3.02520316119172     -2.28569640833307      0.40984196257916
  C   4.72309597666177      1.15094433989805     -0.77451805068381
  H   1.97656860864213      2.81638756127902     -0.28110723326797
  H   2.72284561172299      2.87549396416383     -1.88261696006618
  H   4.14488131630116      4.38231102351524     -0.53204703903730
  H   3.56737833662488      3.91902154967061      2.91950644788636
  H   5.62097261798229      2.87271908721233     -1.77703752606036
  H   5.45191534535284     -1.46740551944040      0.98824986888189
  H   3.70019159282275     -2.96778323963215      0.74787948410260
