26
Coordinates from ORCA-job 7223optt
  Br  1.10643692553066     -0.40486886573990      0.04161673369888
  C   2.99197723549468     -0.22412374244989      0.06106865344960
  C   3.64352396284116      0.99976853974008      0.22103779082974
  C   2.91874108678180      2.30850687727516      0.36293137933678
  C   3.06679067489650      3.18098092315472     -0.87314194169120
  O   4.34385015443752      3.76466871470520     -1.14358929166490
  C   5.56750809719111      3.34101473797666     -0.78273316434764
  O   6.51624358994406      3.81445273417605     -1.33558656770976
  C   5.73694003090794      2.35780748356284      0.36592535527859
  C   5.04245455751838      1.03148288938246      0.19457421157944
  C   5.80023998321061     -0.12551172938788      0.02299448005520
  C   5.13241357354601     -1.32356206579989     -0.12231392923762
  C   3.73441097812304     -1.37427982478944     -0.10571751218277
  N   3.37122335545236     -2.69113036623097     -0.28516573043792
  C   4.49222650542562     -3.49995611986397     -0.41771578512638
  O   4.52694238913404     -4.69076799769485     -0.59011169962626
  N   5.56420732540674     -2.62438151638570     -0.30660287251619
  H   3.26071800249845      2.84737936810703      1.24962429118441
  H   1.85100262829637      2.14084946501210      0.49461193824281
  H   2.39651695424188      4.03647331361441     -0.79946232738759
  H   2.78627621410510      2.60153991283199     -1.75604236799366
  H   5.39013347296052      2.85257642506112      1.27738332361881
  H   6.80996949407389      2.21516588291040      0.46017983970790
  H   6.88112517822295     -0.07631300621970      0.00416675524060
  H   2.43263522414163     -3.05182517088374     -0.32244552150118
  H   6.51449240561689     -2.94394686206431     -0.37848604079970
