24
Coordinates from ORCA-job 7225optt
  Br  0.73873154065950     -0.35238353907280      0.89362580986609
  C   2.54298798695353     -0.14291938030777      0.41424324752715
  C   3.28876806988067     -1.26040369060310      0.14283226681798
  C   3.01053082295668     -2.65158780811084      0.10856172573014
  C   4.19913554560670     -3.24904928389366     -0.25774178651557
  O   4.49809043632901     -4.57535214369651     -0.44527653201918
  C   3.56934896918164     -5.54190704507514     -0.34423777328513
  O   2.41401366280084     -5.39709382337676     -0.10047903457861
  C   5.25588575546857     -2.31009819888285     -0.45845837940194
  C   4.69296295555336     -1.08818912183342     -0.21211001731995
  N   5.20828748950315      0.17401368088112     -0.22694496518598
  C   4.46019322825976      1.27615120138745      0.00486764567880
  N   5.13220701377455      2.49076837403676     -0.03764917546689
  C   5.96747623348441      2.90386975287213     -1.07141048763622
  N   6.26025323501944      2.31676948587088     -2.14959712216594
  C   3.12212777720052      1.14556709709767      0.32181098394489
  Br  2.13000096738651      2.71813975721993      0.62865548609901
  H   2.06601467254838     -3.12017121183104      0.30629886894611
  H   4.05748360490927     -6.50603691173752     -0.52613166064420
  H   6.26905303006399     -2.54951054739544     -0.73472823376992
  H   6.19712511104609      0.30721470543415     -0.39205142849229
  H   4.75633430851970      3.21613621443494      0.55413943548052
  H   6.41579780902619      3.87178235691147     -0.85568427269225
  H   5.75218977386747      1.44429007967038     -2.28753460091662
