27
Coordinates from ORCA-job 7226optt
  Br  1.02740736867539      0.59472295379065     -0.24009084640717
  C   2.86739509924282      0.25436775418940     -0.45647806860695
  C   3.37377911422896     -0.99679749846638     -0.42074943535853
  C   2.50375354490365     -2.22230125568357     -0.34864784653290
  C   2.48028888092650     -2.91410134010706      1.00849020218272
  O   3.79916885481900     -3.39005956595679      1.30582192825499
  C   4.25698112025374     -4.23265028947235      0.33892225613978
  O   3.77246687445124     -5.29738358398572      0.11671782668448
  C   5.39133322204003     -3.63560142758993     -0.46322095792641
  C   5.70202179584913     -2.18866750404261     -0.14490587310899
  C   6.98567731168683     -1.72199896237215     -0.83151636649833
  N   6.81600201581687     -0.28852383367522     -0.78175699055848
  C   5.48770348420775      0.02540889826116     -0.78937551862014
  N   5.04842631527651      1.22255735607437     -0.92161541319929
  C   3.69491895429054      1.45772519537498     -0.73918147092779
  O   3.21587082618364      2.56140555583044     -0.81988942949034
  N   4.75574480569254     -1.13134084433439     -0.59710985904872
  H   2.82507818275350     -2.93374718115703     -1.11458554020580
  H   1.48916720290955     -1.93284250297991     -0.60805606667010
  H   1.78191224195311     -3.75155538805626      1.00295788344375
  H   2.22236506602258     -2.22112265035503      1.80585222628893
  H   5.15469238408336     -3.78169419592220     -1.51943964869496
  H   6.29056760603383     -4.22574731396869     -0.26541292856909
  H   5.81991242330084     -2.07997960542693      0.93579982978897
  H   7.03300040394483     -2.10379444469810     -1.85853422505875
  H   7.86710828075004     -2.04904070060277     -0.28290315031566
  H   7.44925661970314      0.36276237533210     -1.21609251698523
