24
Coordinates from ORCA-job 7229optt
  Br  1.13173236548930      0.27177852867878     -0.17047808285642
  C   2.97955833352936     -0.00622417896496     -0.07409892806716
  C   3.54708011064574     -1.22651359298533     -0.06658974184345
  C   2.75165541876746     -2.49569051349013     -0.06503528450892
  C   1.96676153533695     -2.71057360985713      1.24224593161922
  O   2.15104630166296     -2.07653286541314      2.23450697115912
  C   3.60010337287111     -3.75723569123571     -0.19067555650604
  O   3.15208551981595     -4.75681829332126     -0.68205250277336
  C   4.98885222745141     -3.67262466889168      0.40467723483622
  C   5.73861691950293     -2.49664248981657     -0.23964535867352
  C   4.99528646039972     -1.19837900217082     -0.08442563023534
  N   5.69124376517769     -0.12057772583808     -0.01883487177894
  C   5.05755048072880      1.10499394237422      0.08480554031500
  N   5.58484116002921      2.22562549028416      0.26370720316167
  O   3.65770250494194      1.12351961484792     -0.05085677066813
  C   5.75407867148119     -4.95999514749505      0.18227352677225
  O   6.31865817826240     -5.54441567078538      1.05926762312243
  H   2.01945620453384     -2.53262528319333     -0.87555118233566
  H   1.23616561118875     -3.53718759305919      1.19302192657744
  H   4.89397614077583     -3.49872787019262      1.48189801657407
  H   5.86110824660054     -2.68655588638124     -1.31219395238350
  H   6.73370934469511     -2.38273354012144      0.18659200229896
  H   6.59282438933679      2.11126321428207      0.32289441637539
  H   5.78590673677493     -5.31412716725408     -0.86445253018137
