22
Coordinates from ORCA-job 7230optt
  Br  2.40558788904642     -2.28247778833678     -0.26296638109329
  C   3.51999035693845     -0.79284448687227     -0.55307712410493
  C   3.11770931479515      0.49949525662030     -0.31511938190099
  C   1.81449257184324      0.75727357241942      0.23861305771480
  C   1.16440498679852      1.90399988899740      0.53390369290923
  O   -0.13063003888030      1.71348247664677      1.01981721577955
  C   -0.37320751585252      2.09104253244286      2.29621810158395
  O   0.43017573201257      2.55730498844058      3.03693965301760
  C   1.54602862433255      3.26461651246391      0.38071216954452
  C   2.73841600213989      3.69344413174580     -0.08438857834743
  C   3.85495960638795      2.92595222907316     -0.50825858234219
  C   4.04142977575951      1.58255287599403     -0.60748320774411
  O   5.28535423885012      1.28820584489155     -1.06781709311208
  C   5.78502747849840      0.03442867877042     -1.29182616036321
  O   6.89680167261108     -0.07825134926107     -1.67747186793439
  C   4.84429497277147     -1.13819597515717     -1.02746707078266
  O   5.25424663993419     -2.25237019566927     -1.22058239688275
  H   1.24340547463984     -0.13147574530948      0.46715505233800
  H   -1.42372383746732      1.89036483333502      2.53006827581045
  H   0.80831558593607      3.99990132062806      0.67279274261745
  H   2.88051534320965      4.76549284766488     -0.13922208301798
  H   4.72440512569504      3.49405755047187     -0.81654003368953
