24
Coordinates from ORCA-job 7231optt
  Br  2.54462611154184      0.75972467453774     -3.18507209466243
  C   3.10291473142244      0.78878769180576     -1.37376574311763
  C   3.72857025871703      1.86864956947484     -0.83014456169668
  C   3.43427660194044      3.27619661096413     -1.25204856553006
  C   2.13530658835295      3.73142836646167     -0.55437438453305
  O   1.01771499739247      2.95520069049470     -0.96157247698574
  C   0.44054760952025      1.92891448651143     -0.28103856539099
  O   -0.43500726332061      1.32294350519157     -0.81470318111672
  C   0.86855839642032      1.65675224963972      1.15688692642574
  C   0.66305204636936      0.22737227488480      1.62245616510865
  C   1.57248409637099     -0.73256807318675      1.46377421258054
  C   2.75916380045370     -0.37078370306186      0.64738271469930
  N   2.55188692095445     -0.15643990585326     -0.59813851068528
  C   3.98982100976894      0.08353995418940      1.33089164901972
  O   4.54769345862820     -0.42152373805291      2.25855789800631
  S   4.54852069219138      1.67873015253438      0.68069354768839
  H   3.30090842346959      3.32861373186298     -2.33128836469620
  H   4.23297852058941      3.96344418354667     -0.96891817700871
  H   1.90906936106725      4.75229368444587     -0.86110568266654
  H   2.26206033663895      3.72466347607701      0.52846026623181
  H   0.26544152506220      2.32844028586013      1.77410056086438
  H   1.90338687676633      1.94701233169845      1.31838144351144
  H   -0.24780936770252      0.00950933861940      2.16574974245267
  H   1.45883426738459     -1.71790183864589      1.89583518150107
