25
Coordinates from ORCA-job 7236optt
  Br  1.00815131898760      0.26258325057270     -0.23727441873627
  C   2.88815207799792      0.08549409301996     -0.06612720622456
  C   3.44386897150238     -1.16999849407711      0.16560671597057
  C   2.66030049671239     -2.44751498840169      0.25109308064273
  C   3.55831500113833     -3.58507556568020     -0.21014414059924
  O   2.93748507868593     -4.85109171465077     -0.02242674008644
  C   2.04869051991273     -5.21796309323385     -0.95981089364973
  O   1.76067249002311     -4.56239687007452     -1.91727508787233
  C   1.48798220681190     -6.52157586598183     -0.65311884681498
  C   1.00997307815466     -7.59232461022686     -0.42185459166149
  C   4.84983418131282     -3.60044925818654      0.57559446639633
  N   5.40376545270118     -4.56733636668739      1.14303613636311
  O   5.48165336229963     -2.39464142448301      0.61820874337580
  C   4.82888308745998     -1.22742369279204      0.31520852946958
  C   5.62966770542941     -0.09999384432500      0.21573441128010
  C   5.03851400618557      1.12594912234200     -0.02677109465504
  C   3.66162463685305      1.22981235255315     -0.16419353651140
  H   1.77682040420410     -2.40554874529320     -0.38331537074261
  H   2.33223039416783     -2.63918153261301      1.27741103554016
  H   3.79256560145646     -3.45035543760271     -1.26990990480376
  H   0.58191699257238     -8.54662213148771     -0.22075909155027
  H   4.85137604134763     -5.41156571230576      1.01760676749394
  H   6.69801159101564     -0.20808027869243      0.34042579066989
  H   5.65181241870662      2.01379820929541     -0.10206252925213
  H   3.19073288436068      2.18550259901247     -0.34288222404195
