24
Coordinates from ORCA-job 7240optt
  Br  1.13529577212105      0.09749517751718      0.00585017584584
  C   3.01702399235751      0.05719574799666      0.01324954746921
  C   3.69535571368232     -1.12955037840661     -0.00231117826212
  C   2.95189899428730     -2.43950100096628     -0.04480871651893
  C   2.14834318657790     -2.65637184284939      1.24852657633560
  O   2.56349167133333     -2.33476570217547      2.32052409193157
  C   3.83453683945630     -3.68369107924434     -0.13238193852935
  O   3.44345843007276     -4.68334957488948     -0.66607143648688
  C   5.15489559344042     -3.51632136143069      0.55142313950911
  C   5.87672189095978     -2.31766037918812     -0.04195869888471
  N   5.04946667445451     -1.10554853514452      0.00082690729986
  C   5.78736147903469      0.11297943761904     -0.06150797542043
  O   6.98711430154149      0.05915022340782     -0.18112791308533
  N   5.07573853873325      1.28173896031056      0.02591184173344
  C   3.77564376117169      1.26235406777048      0.05437749962244
  C   3.09897017562603      2.52763332456799      0.13891205285842
  C   2.53069057688292      3.57843050406577      0.20836394157611
  H   2.25986671431754     -2.44659443871436     -0.88714841637972
  H   1.19464047205854     -3.19250973969101      1.11797064916493
  H   5.75038468595753     -4.41963953639694      0.44184852172023
  H   4.96032962015256     -3.32957392351484      1.61271024436869
  H   6.16957210320288     -2.50198875567144     -1.07820056217439
  H   6.78562744054488     -2.09275041336078      0.50857439026821
  H   2.03057137203278      4.51583921838879      0.27444725603820
