25
Coordinates from ORCA-job 7244optt
  Br  1.21941821621887     -0.38222967252217      0.42686940857742
  C   3.08901416535099     -0.47515843675348      0.29529062616428
  C   3.74199711509722     -1.60890955475491     -0.00387621481962
  C   3.33452141071414     -3.00527755077353     -0.35262101749574
  C   4.69030572816866     -3.71977988133166     -0.27327155429655
  O   4.88043933867056     -4.31124183704912      1.02140448350267
  C   4.26376969241773     -5.48256095866931      1.21195968681364
  O   3.58385373693899     -6.02902169008560      0.39650387304141
  C   4.54990884855112     -5.98821532639316      2.61434360618094
  C   3.98294917445737     -7.30808544292117      2.85926851261811
  N   3.54931419592501     -8.34375542405814      3.07854458496995
  O   5.69152095904444     -2.74334442289878     -0.38752005423784
  C   5.16848818798592     -1.52591169642519     -0.07057403846030
  C   5.87953381699297     -0.40164690160319      0.12643324002412
  C   5.16369051017829      0.82439916119327      0.43507893880216
  N   5.61921941383003      1.99733689121790      0.64758832330244
  N   3.76645560958865      0.67869842399203      0.51587335134219
  H   2.93175798436325     -3.07672848050091     -1.36484612747287
  H   2.61318257704933     -3.45255221993639      0.32889379181071
  H   4.85021099761078     -4.48324826773152     -1.02869292936990
  H   4.14000106558325     -5.27092602403985      3.32821492719024
  H   5.62921810276628     -6.00862302977554      2.77119745471410
  H   6.95734175701012     -0.38210789080038      0.06710266949567
  H   6.63078572340938      2.01341575631203      0.57468811799627
  H   3.26610167207652      1.52747447630882      0.73814633960647
