21
Coordinates from ORCA-job 7247optt
  Br  1.14579537209940     -1.08357293270326     -1.63724762784899
  C   2.69250585928345     -0.45355603684749     -0.80929832750052
  C   2.87090320635602      0.84446350980354     -0.55368262122027
  C   2.07249458997820      2.03984494699565     -0.86296758230044
  C   1.73438791667763      2.73441928090051      0.21701478298552
  O   2.22889665528239      4.01009101249722      0.31817871984239
  C   3.60218372575697      3.98021462398802      0.21322151326968
  O   4.20035448401557      5.00717249738716      0.18200852959912
  C   4.39518397570061      2.65863812092771      0.29343861117992
  C   5.82585614032283      3.05799128297666      0.65473604315367
  O   6.65854861523543      3.13555114272008     -0.19451268786794
  C   4.10691556208647      1.34755993186453      0.06897914218594
  C   5.11298189424487      0.32299645671419      0.50210717925921
  O   6.07022539510803      0.55807185999944      1.16746449663851
  O   4.86727895516415     -0.96759893366945      0.14838521327840
  C   3.72811593086036     -1.44460297043283     -0.46771278644030
  N   3.60809516741116     -2.66549328964932     -0.71468425675864
  H   2.42822097797408      2.60725351324341     -1.72025656464926
  H   1.37485534734677      2.31263657229559      1.14880293211516
  H   6.01202409138040      3.32783167937189      1.70572328186779
  H   4.43217613771516     -3.18491226838326     -0.41369799078896
