26
Coordinates from ORCA-job 7248optt
  Br  1.52313888410293     -1.93250724631408     -1.16703458392553
  C   2.36301804237585     -0.38322853122832     -0.52633318492939
  C   2.05825525725160      0.82595400446110     -1.00210586526565
  C   1.00392870906848      1.23787293496445     -1.97188105386171
  C   -0.19088400147047      1.87734545932879     -1.25761791039203
  O   0.19954200889258      3.10317929103110     -0.62576683272150
  C   0.63299489722101      3.02620848281975      0.63992565312778
  O   0.53020519990436      2.05434151218089      1.33537303511752
  C   1.32793176906963      4.29803910134645      1.06011266367530
  C   2.82995984157116      4.27430658886114      0.75474008790984
  O   3.34037853185030      5.18552914808287      0.16734132143237
  C   3.67894350126326      3.12460816248912      1.28956945101306
  C   3.37318497010333      1.78948449195438      0.67066549060118
  O   2.71126091216536      1.92669712043797     -0.50182048985115
  N   3.69904328481072      0.69257708993736      1.19929398528839
  C   3.35115175723018     -0.51854553313603      0.55870712924810
  N   3.80338288786997     -1.64202536183717      0.91814736755825
  H   0.65449370374320      0.37075586935100     -2.52838247232908
  H   1.42738157499421      1.95925920223927     -2.67342603311703
  H   -0.61290068210700      1.19936376251655     -0.51722827024354
  H   -0.95144456390638      2.15293348274147     -1.98411236092648
  H   0.90948138642547      5.16251833008398      0.55225015346813
  H   1.21069360328080      4.39252104709278      2.14114119259601
  H   3.53904018466639      3.01733531214283      2.36633167542012
  H   4.72166073096494      3.38006689157399      1.09887265061463
  H   4.44315760865808     -1.51359061312164      1.70123720049241
