26
Coordinates from ORCA-job 7250optt
  Br  1.01470497335275      0.04247335498105     -0.43395663405277
  C   2.87214864797592     -0.05082137323449     -0.20134960440531
  C   3.51927818685066     -1.20662526937577     -0.11114473243434
  C   3.02531088551167     -2.62724474163765     -0.11201310032718
  C   2.37708181717580     -2.94536052936396      1.23508542600965
  O   2.01804229509821     -4.32879551028043      1.32746689456042
  C   0.89597065794471     -4.68960427016074      0.69780091715920
  O   0.19815367293069     -3.96473295731855      0.05441005541271
  C   4.31058445640782     -3.43684503260698     -0.32522053953520
  C   5.45097928155600     -2.49195438965263     -0.00114531009920
  O   6.60999432708406     -2.77163784363727      0.14975608279381
  N   4.92152484727486     -1.20149424716997      0.06600688874430
  C   5.67758894503177     -0.02584961573540      0.21730302717119
  N   6.91705584010567      0.04792012184588      0.42043593379378
  C   4.89797022618671      1.27038060438920      0.09806152550467
  N   5.43144982819911      2.40890429619962      0.18392439242161
  N   3.53890153213862      1.15491696028794     -0.13103709386240
  H   2.29104356843940     -2.78614669676406     -0.90072189962802
  H   1.49272929168518     -2.32728168576863      1.38446084794573
  H   3.08597514061337     -2.78017396989276      2.04645279192535
  H   0.70845808218006     -5.75668782582817      0.86286669081431
  H   4.43573899029278     -3.74819681020438     -1.36360683912482
  H   4.37333541786696     -4.32732979770404      0.29748718691092
  H   7.35483647834170     -0.86899833634916      0.47426628744379
  H   6.43132641377845      2.29490166788760      0.34585091253055
  H   3.02881619597700      2.02028389709375     -0.22144010767275
