25
Coordinates from ORCA-job 7251optt
  Br  1.15118603406283     -0.09667735107316     -0.23435260963563
  C   3.02414198861970     -0.25850842206664     -0.13561055186526
  C   3.66040189384924     -1.41095402909812      0.19949498555460
  C   2.96690416235057     -2.66778115678489      0.63918804734972
  C   3.45688063872853     -3.12864064415461      2.01455441707931
  O   3.62994253269374     -4.27567002351577      2.29755442832072
  C   3.11897972129400     -3.81618122621098     -0.34872522678603
  O   2.19574855946391     -4.50999873247575     -0.65904213146999
  C   4.49956164744104     -4.01201530160881     -0.95046553556572
  C   5.67538004666115     -3.77791451530590     -0.02775380253521
  O   6.49027211135040     -4.62986796874518      0.20853542999342
  N   5.82213888322397     -2.50778530183678      0.51602713648946
  C   5.10772299330386     -1.34629225968621      0.18583269295947
  C   5.77514907911176     -0.19571534889967     -0.06974447302118
  C   5.07863835856904      1.03639335279830     -0.36651324174964
  N   5.53551145061285      2.20192387430948     -0.60384586523477
  N   3.68645382486509      0.88116706676232     -0.42501902103562
  H   1.89659442423528     -2.48663873264386      0.75774002308986
  H   3.61702087771228     -2.31234662736066      2.74485750160058
  H   4.57634396017999     -3.30359616360467     -1.78393722782036
  H   4.57251305241807     -5.02254098903580     -1.34066909405374
  H   6.72353535647565     -2.38154107519213      0.95690732232832
  H   6.85667740597863     -0.17719768660983     -0.07502879558219
  H   6.54874920114781      2.21685337416306     -0.55281909640168
  H   3.17355179565056      1.71752588787630     -0.66816531200846
