22
Coordinates from ORCA-job 7255optt
  Br  1.12898983403232     -0.09524714013564     -0.04858106569094
  C   2.99548898909664      0.05613961525367     -0.01543049041948
  C   3.66237322020771      1.22004519562903      0.13900612766493
  C   2.99263520500973      2.55478468093322      0.29395672851167
  C   3.66198912981316      3.60768867268945     -0.56698690490510
  O   3.08955781843826      4.34992637511650     -1.30229425489741
  C   5.19133860758641      3.66520209315015     -0.36982312254258
  O   5.84060161296453      4.60161745011104     -0.71998187456077
  C   5.77925707367280      2.49431512613643      0.39311732603076
  N   5.05717450102848      1.24150245415694      0.15038768857465
  C   5.87015845542664      0.11321111283735      0.03356285993258
  O   7.06610058162242      0.14057846242164      0.07404269523524
  N   5.12233471087810     -1.05103417569229     -0.12913188269540
  N   5.66741256240986     -2.27833412147915     -0.26353024657400
  C   4.60377033334155     -3.03798626939251     -0.36274439591318
  N   3.40342825690519     -2.39686288540583     -0.29973787070668
  C   3.75746290531210     -1.14564896617515     -0.15151783999893
  H   3.08312148285248      2.88093684811754      1.33885327353710
  H   1.93763055355023      2.49455426511716      0.04736177269823
  H   5.76688798208881      2.73833530311374      1.46163778893855
  H   6.81438770188520      2.35378134036395      0.09661355277593
  H   4.68889848187731     -4.10550543686726     -0.48477986499519
