27
Coordinates from ORCA-job 7262optt
  Br  1.92478187063505      0.08288482756243      1.97032697433412
  C   1.86186984000736      1.49691124078394      0.68665320524763
  C   2.94937974586804      2.29044243584906      0.54851337593324
  C   2.89037929466343      3.50217380075595     -0.35655006303268
  C   2.22710941000806      4.74139583195554      0.28696452617090
  O   1.32289285447309      4.48593913310704      1.35856489341848
  C   0.17369794861831      3.82005507722197      1.20108047985948
  O   -0.49747033356155      3.53840038121327      2.14707290317620
  C   -0.31173252362938      3.53546538662095     -0.21903911672839
  N   -1.23607309193152      2.43967440144297     -0.26040311635607
  C   -0.97558931927198      1.17184889146407     -0.66014218391686
  N   0.11003595778909      0.57846314206088     -0.97576293794966
  C   1.37958159355386      0.97109917981266     -0.63286704727089
  N   2.39037830823823      0.51093289702325     -1.29887739098256
  N   3.67825960435395      0.73024641794212     -0.91319327896750
  C   4.13728087802591      1.44118346089811      0.26602579397110
  N   5.29592082424492      1.41066234209632      0.74152600493140
  H   2.40031079968933      3.24852341118946     -1.30024785301042
  H   3.90974498323716      3.78882891007062     -0.61586137276367
  H   1.73607756591769      5.34081172418914     -0.48358569038264
  H   2.99107703661165      5.35717971443988      0.75337604358203
  H   0.49041807293609      3.33754660043352     -0.91946279829213
  H   -0.81534293686324      4.44591776342710     -0.56057752581080
  H   -2.15542149287343      2.60748514276278      0.11397141664525
  H   -1.89010203470836      0.58950136627868     -0.76106909165649
  H   4.30839061484194      0.05698452753568     -1.32408612852783
  H   5.91014452912616      0.76244199186242      0.24864997837875
