26
Coordinates from ORCA-job 7271optt
  Br  2.77381580797860      0.68688040395996     -3.66333068730191
  C   3.11471663498744      0.66412582027374     -1.80443962703126
  C   3.72774359931602      1.75267430317346     -1.17162973872182
  C   3.48326666324420      3.16442377245228     -1.61246484637776
  C   2.01042375375616      3.43172430472925     -1.23079893007457
  O   1.81324431463311      3.15755313367091      0.15711995752808
  C   0.61988891076508      2.57843997301074      0.54541433323572
  O   0.63780146429523      1.15474189125390      0.41179343533525
  C   0.84966901991119      0.34648019042521      1.49024476759048
  N   0.32306663591519      0.39037461091571      2.62129619248687
  O   1.71998782397753     -0.66982207634175      1.18749368835841
  C   2.71773402534165     -0.21603646113560      0.35045431641714
  C   2.55529303603083     -0.32364381230002     -1.01782223988503
  C   3.71738198613070      0.62479402870607      0.83814980497362
  C   4.23772776529795      0.62142388360025      2.23793005599328
  O   3.97506195463047     -0.20620567806515      3.06144610675885
  N   4.16326307312925      1.61115863296406      0.07025881723107
  H   3.60313856020847      3.32586844078940     -2.68263497678591
  H   4.13943424188595      3.83482502688950     -1.06072485531941
  H   1.36043203497066      2.79059987188884     -1.83348763282799
  H   1.75734484206827      4.47688646614229     -1.42554982106976
  H   0.46258141892356      2.84144589894854      1.59144706723294
  H   -0.21384370664776      2.91479684569558     -0.07358044290670
  H   -0.38530471132213      1.11586382708424      2.67884377779162
  H   1.85232523984270     -1.03690865064788     -1.42723477771554
  H   4.92280561072963      1.46553535191645      2.43480625508432
