25
Coordinates from ORCA-job 7276optt
  Br  4.27106091894375      1.42832338246267      3.15205201302351
  C   4.77885199188842      0.93154502627918      1.41410810038104
  C   5.26448422409938      1.82346578117550      0.53627088410516
  C   5.62894607177320      1.39551247385941     -0.80370673952460
  C   6.31745103836318      2.26856913081973     -1.82529603567247
  O   7.72535832562838      2.04155706727711     -1.86209121128127
  C   8.47963605743324      2.91590837871418     -1.10469732704353
  O   8.00435776803431      2.86447378061633      0.24397244769958
  C   7.61543988001683      4.02429136885670      0.81812532960567
  O   8.03592093567693      5.09934213957137      0.51949620788564
  C   6.49240004081622      3.74848081285923      1.79154629682975
  C   5.33885111585383      3.28729123251308      0.90689547751584
  O   4.55233674591118      4.06185396183999      0.44015736782505
  C   5.39863264142115      0.11355189219381     -1.10648192772674
  O   4.88135546495637     -0.78657407618598     -0.25200446779258
  C   4.56892787917010     -0.47288711385012      1.05521568051683
  N   4.12434212286957     -1.34432693049087      1.84388915872545
  H   6.10154122122899      3.32741196257580     -1.65170789604108
  H   5.95358274970265      2.01411717897541     -2.81968333237592
  H   8.40198885968158      3.94920899400450     -1.45162409320397
  H   9.50836940129606      2.56727854414086     -1.13251090323209
  H   6.21713966660977      4.66329277967567      2.30707674679292
  H   6.78107929370648      2.95946856554862      2.48455173163572
  H   5.62071895480698     -0.32905295428692     -2.06817421939715
  H   4.05022663011141     -2.25110337914529      1.38762071074923
