28
Coordinates from ORCA-job 7277optt
  Br  2.00283627177131     -0.47696800687082     -2.73151021915809
  C   2.73542197247527      0.26687587362394     -1.16801605735336
  C   3.43516394716377      1.40650526945068     -1.10779897700776
  C   3.43750555479590      2.45422402313125     -2.17050268477279
  C   2.30104113648222      3.42018957828003     -1.81959003792873
  O   1.07312445273487      2.69301612703890     -1.81176969547585
  C   0.14855113857556      3.06220202661133     -0.86200210413451
  O   0.52091451224955      2.63380870221749      0.45981546121669
  C   0.14124450677250      1.40646594269589      0.85556808616536
  O   -0.47758251374971      0.64168498346672      0.16743434336680
  C   0.61450301297035      1.08808891601105      2.26290075132134
  C   1.60024103440292     -0.10372745139497      2.25398203294221
  C   2.59825295858701      0.21251325798305      1.17730856128895
  N   2.40741037994177     -0.41905115056091     -0.01748443967407
  N   3.39600706833122      1.20290380160427      1.33191876057018
  C   3.99646696078175      1.78554058426184      0.21346606879695
  O   4.85446162773045      2.63218037061935      0.31752157437594
  H   3.27119597436758      2.03022871202640     -3.15958832188683
  H   4.37992573293405      3.00050371437905     -2.16506424652943
  H   2.23273896680349      4.22404979355835     -2.55668126372159
  H   2.48896824314980      3.85507581623526     -0.83393493911904
  H   -0.79721733766643      2.59913519645961     -1.12979744473371
  H   0.06162454464819      4.14613541753201     -0.76950036929429
  H   -0.26142731686792      0.83899163364843      2.86228308066823
  H   1.11257799315247      1.95860491927350      2.68157950916270
  H   2.09036412701437     -0.17434074092511      3.22225917180390
  H   1.07304078964004     -1.03535659058244      2.04824347980863
  H   1.69464426080762     -1.13048071977419     -0.08404008069782
