25
Coordinates from ORCA-job 7281optt
  Br  3.84995832824882     -0.32524685656434     -3.63574617985604
  C   3.63547267968904     -0.02230050497377     -1.77757689047252
  C   2.52552127245976      0.70206687620912     -1.32002333097864
  C   1.47779624084675      1.39537443873143     -2.14251140965617
  C   0.59802450772271      2.28436577375120     -1.26603132135639
  O   1.35745570479259      3.33133497140727     -0.66892409392464
  C   1.29378142162869      3.53038941711970      0.69930864368232
  O   2.45292249573420      2.99113254253752      1.35139400042974
  C   2.28344603360421      2.03016382329117      2.27607282817128
  O   1.48702278784721      2.06886152685718      3.16763546559382
  N   3.21247156528098      0.99846653795326      2.09943448654375
  C   3.36567135348940      0.50844531907808      0.80642401172745
  N   2.40402206719287      0.86048907658165     -0.02323272330664
  C   4.44791806075834     -0.24612087646253      0.33962203096801
  N   4.53580318113088     -0.51605278521164     -0.96744725716590
  C   5.44389456096998     -0.73757160806878      1.23830829211852
  C   6.24179325912108     -1.13729157594835      2.03848008055523
  H   0.85409269035052      0.67293202240482     -2.67661684948651
  H   1.97568846518594      1.99664203431127     -2.90738127398750
  H   0.10731366517593      1.68758701095110     -0.49552892617394
  H   -0.16950544292107      2.74503149280260     -1.89122550467088
  H   0.40150795857031      3.08938734644831      1.14947722211594
  H   1.32693636705284      4.60317802419406      0.87192175436550
  H   3.36121473477572      0.38786251238411      2.88939232577135
  H   6.96177604129225     -1.49912653978448      2.73377461899287
