27
Coordinates from ORCA-job 7282optt
  Br  1.45963921969688      0.60490842356313     -0.28361111532653
  C   3.29480476647668      0.82820799114291      0.07902988594676
  C   3.97192700936713      1.97234289762279     -0.21691591384542
  C   3.26857444196305      3.16373690022656     -0.82110419073392
  C   2.48777798742690      3.96519804943210      0.23259971639952
  O   3.28525927688558      4.23173896099328      1.37508762926295
  C   3.73784138761013      5.51945927736682      1.55488443569033
  O   4.39327218440154      6.08751425113049      0.41112209512990
  C   5.36298616561327      5.41567669865252     -0.21442140007538
  O   5.76135482746311      5.73167764143359     -1.29395949027639
  O   5.78175389524093      4.36182247889181      0.49543547719914
  C   6.23580931821188      3.22459064176528     -0.25322147103978
  C   5.38429174307090      2.03530810811603      0.07917265050760
  C   5.96779571410115      0.96730625259664      0.66880207100097
  N   5.26583086121633     -0.15379406808966      0.95882245140995
  C   3.91482110872155     -0.34153538118555      0.69681951903227
  O   3.37212688582436     -1.38715624894918      0.97883721844623
  H   2.54967281477220      2.81833453470374     -1.56539703652883
  H   3.97733923889920      3.80289839770799     -1.34619789460553
  H   1.63799490108572      3.37523684644832      0.57384404563790
  H   2.11791655874175      4.89314910938480     -0.21124232522365
  H   4.42169219725935      5.49275858370973      2.40056416015770
  H   2.92190804579850      6.22454947115928      1.72727474940778
  H   7.27073350606878      3.03157703609261      0.02567927058123
  H   6.21242730550741      3.47980651595647     -1.31254985553190
  H   7.01682073909151      0.95305577606899      0.93230318390849
  H   5.71762789948417     -0.94536914594151      1.39434213346860
