28
Coordinates from ORCA-job 7285optt
  Br  1.24497680001059      0.47011223484644      0.06870744644286
  C   3.12244733813458      0.22438152283087     -0.01856969497188
  C   3.64119023043766     -1.01644923199641     -0.01800781351908
  C   2.82864666381346     -2.27078512999407     -0.04792586741561
  C   3.52503143012236     -3.24496956320796     -0.96206530369578
  O   4.81780006884812     -3.51468292567143     -0.43383617175451
  C   5.58485464519301     -2.51819351869431      0.01433247028960
  O   6.69270929668738     -2.76071722822225      0.39261426540188
  N   5.03877250926279     -1.21188622677312     -0.00261381259696
  C   5.94963615954241     -0.08686339582501      0.08903175974735
  N   7.20930197176642     -0.12061661809028      0.18723084988054
  C   5.29523324585840      1.21305037343304      0.02055709600017
  C   3.97119172968886      1.39840242135582     -0.02893078362198
  C   3.40109013754924      2.78761291106474     -0.15269968441646
  N   2.84645544248760      3.00398596893981     -1.46986460678710
  C   1.60683030975993      3.53848677107971     -1.70169033341471
  N   1.09074907772304      3.89259180847603     -2.80338173766417
  H   1.82473992289542     -2.05719344669504     -0.40235152169779
  H   2.75111134858385     -2.70294315594261      0.95414811050091
  H   3.62272348367995     -2.84022458734477     -1.97248772063137
  H   3.02015563287253     -4.20614241782037     -1.00975987909932
  H   7.58311073686644     -1.05961073600307      0.26044733737132
  H   5.98268187935014      2.04819318312193      0.02503947947343
  H   4.19291486711825      3.50674897320144      0.07148058666288
  H   2.60269134533853      2.94024983835549      0.57490715425638
  H   3.47522072783550      2.91638216504835     -2.25373702150584
  H   1.01637073542279      3.63764447483537     -0.78994579296031
  H   1.72836226315065      3.75843553569167     -3.58862881027447
