22
Coordinates from ORCA-job 7286optt
  Br  1.46043464873985      0.24118134141920     -1.48999793739530
  C   3.10547029000578      0.09225556998024     -0.62524359141371
  C   3.68976798601896     -1.06898081659955     -0.31656329271716
  C   3.14921771739722     -2.39284801683715     -0.51539510082012
  C   3.78926494033571     -3.42431216559771      0.01712947577418
  O   4.91996541896591     -3.30327893392383      0.77442902077966
  C   5.57511217366161     -2.12177696879892      0.90955806008472
  O   6.55849784534214     -2.05582211058357      1.56854761026577
  N   4.99410420822988     -1.03776283231306      0.24396226704150
  C   5.72155959351015      0.16203733923880      0.07979427174490
  N   6.93815986655666      0.12734833455916     -0.21858279235739
  C   7.71214075195216      1.33635962492280     -0.39393063777926
  C   8.73674824387593      1.12780127962729     -1.42484441772755
  N   9.53588046674012      1.00410193173623     -2.23460657278300
  C   4.85736536271168      1.37960131693322      0.27128111962223
  N   5.13709951812159      2.42355658272808      0.90282569438394
  O   3.63682216189668      1.31334826596951     -0.33354253546182
  H   2.23972762992928     -2.53356106865236     -1.07593487236219
  H   3.48325484899694     -4.45555219058314     -0.06644560706597
  H   8.23208465818457      1.56415597709075      0.54173450190414
  H   7.12167748956941      2.21371054573799     -0.67674585596972
  H   6.06764417925771      2.38343699394602      1.30757119225215
