24
Coordinates from ORCA-job 7287optt
  Br  1.14878850247876      0.31426784212723      0.05664389134378
  C   3.04714236809481      0.12359244463876      0.00900722003449
  C   3.58621681438232     -1.15948439357135     -0.07260695391989
  C   2.76526101826270     -2.41267125808181     -0.03558816292763
  C   3.56269090121342     -3.59970706644090      0.45524030001342
  O   4.49808385759650     -4.07772117713867     -0.51820513829892
  C   5.72155463681449     -3.57158785486666     -0.63520161373159
  O   6.63533692476511     -4.21483334559396     -1.05080452691211
  N   5.89570167596808     -2.21766272289733     -0.27194603453245
  C   7.17877966826632     -1.67415898113075     -0.29392555216862
  C   7.11965547663750     -0.32708078581414     -0.16660262560129
  C   8.20333912770199      0.58728868310780     -0.13600451344426
  C   9.09392575161238      1.38897727574578     -0.10669453069090
  C   5.71988022425573      0.01830232812806     -0.07840929249831
  C   5.03952746639683      1.22206509105616      0.02654691863910
  N   3.71652525663856      1.26023497388117      0.05578527027802
  C   4.97836291356758     -1.17150224293517     -0.14022287984119
  H   2.34292019436998     -2.63632234071014     -1.01891023933026
  H   1.92107514083503     -2.26595342877411      0.63964185646463
  H   2.90789346689385     -4.44899002594724      0.63314045199513
  H   4.08998689593898     -3.36635883122958      1.38277087507645
  H   8.02182487128052     -2.33116679347473     -0.41714263211428
  H   9.89241758543967      2.09134916206359     -0.08275766587006
  H   5.56910926058879      2.16612344785800      0.08024557803674
