22
Coordinates from ORCA-job 7290optt
  Br  1.15441138812152      0.50593722462169      0.42857291216525
  C   2.98726293255530      0.15645478673345      0.24465661291297
  C   3.49809782091828     -1.08490524843923      0.16076130042454
  C   2.84131602581210     -2.38186210895575      0.11209539687819
  C   1.41214859005818     -2.66491636151659     -0.22384954690550
  O   0.88212370474716     -3.69672801040316      0.08769313312715
  C   3.61088289984175     -3.47245764175956      0.25469234045277
  O   4.94246414636352     -3.46896438142981      0.40056819289175
  N   5.62027019277481     -2.28753826320334      0.30199060333995
  C   4.95535048792240     -1.20432466756952      0.18071755616453
  C   5.77330919664975      0.04406351425216      0.10058797325361
  N   7.11034493835462     -0.14158146866734      0.00975243269642
  C   8.11607369757485      0.84294740323171     -0.07010845014754
  N   8.00426224480314      2.09192533134314     -0.07897172583064
  N   5.24533869594198      1.21230489670323      0.12423098793352
  C   3.85824478554643      1.37326406426426      0.24133284279250
  O   3.38415235811968      2.47299623226178      0.32457561417174
  H   0.89278737219296     -1.91158772140177     -0.82904215276777
  H   3.21166862872642     -4.47749488898785      0.23950878678300
  H   7.41536081569909     -1.10409253995614      0.02013085690229
  H   9.09839706001627      0.37731600585843     -0.13438348277788
  H   7.03273201725974      2.39224384302018     -0.01351218446086
