29
Coordinates from ORCA-job 7291optt
  Br  5.86079087289492      0.65858895406063     -0.51615292499584
  C   4.57429769074845      1.54643071415466      0.56786834006511
  C   4.09943381161288      1.00075580065800      1.71770793894215
  C   5.18510372996922      0.40103520849354      2.56011882788631
  C   6.05174401475587      1.41237864173498      2.71148074200755
  O   7.33022834157654      1.53376306097993      3.13864505422775
  C   7.81095422702850      2.78210403115100      2.69220757304309
  O   8.31741539341242      3.53581167704503      3.45652999076350
  N   7.77978047075142      2.93597747955439      1.32354401850965
  C   6.98188200066054      3.29690281052126      0.41182189905167
  C   5.55684238301153      3.76814275221950      0.49901746451718
  C   4.44899012208733      3.00193040106465      0.49349208748134
  C   3.08920784165891      3.52558181783755      0.95977658485517
  C   3.18041386996007      4.00566261442112      2.42937506169153
  C   3.03482746724392      2.71935315997949      3.28131153990589
  C   2.80395942115402      1.58508631084772      2.24904380959374
  C   2.12330508101705      2.34164116392423      1.10045552400488
  H   5.28360024320975     -0.61745304940826      2.90581617747980
  H   5.68294983887859      2.38000803470544      2.40990960848972
  H   7.41295535785798      3.29488855518099     -0.59123425770608
  H   5.44711439587646      4.84110515273936      0.63071332345812
  H   2.73891617334807      4.30918076274373      0.28844271215838
  H   2.35565001101373      4.68924948770941      2.63337892593874
  H   4.10911345682621      4.53977837299416      2.62518978892852
  H   2.16933458487728      2.78927260170772      3.93946386251688
  H   3.90157467401594      2.52356085546776      3.90973603152826
  H   2.20081787409014      0.77905519216338      2.67114984410035
  H   1.13867021442768      2.69892398844234      1.40530809816024
  H   2.02412643603452      1.74628344690624      0.19388235339636
