26
Coordinates from ORCA-job 7302optt
  Br  1.29887359490372      0.01309388590811     -1.17818202961970
  C   3.11457442972513     -0.07950860262689     -0.64319078803186
  C   3.80589083863048     -1.28373169370958     -0.58218462983343
  C   3.17081041438865     -2.58632815108506     -1.03400839349744
  C   2.63234268631529     -3.48999894570328      0.09366410238501
  O   3.07957332003038     -3.20510235017011      1.41779079519538
  C   4.38882965325865     -3.13615167892916      1.67251033812441
  O   4.82558381947540     -2.77414822725580      2.71531110350608
  O   5.12613585275436     -3.51048893497077      0.59876078103781
  C   5.95750551073763     -2.46351234823732      0.09841447571485
  C   5.12934375559379     -1.22058543376013     -0.12375861393683
  C   5.65911192476876      0.01804397982036      0.21130189563163
  N   4.99747939700761      1.16442071363071      0.10782706804516
  C   3.74241760400809      1.11449617280506     -0.30439377791725
  O   4.07689624735091     -3.34113454029284     -1.83672945097228
  C   4.34732583527857     -2.82216231367887     -3.06124482288303
  N   5.19243173736969     -3.29528504667049     -3.85443586364157
  H   2.31487243900998     -2.33744059271393     -1.66249871697002
  H   2.86263867275020     -4.52161044637334     -0.17115299016175
  H   1.55498526113178     -3.36301084289635      0.16451234082890
  H   6.37696513425726     -2.85011636633618     -0.82888960301765
  H   6.75999613582269     -2.25418951649307      0.80710752401791
  H   6.67292666429251      0.08011776241710      0.59316860762279
  H   3.19966602481491      2.05015765533716     -0.36819831277653
  H   3.76028569115056     -1.94101824681367     -3.32620594883857
  H   5.65153735517295     -4.11680589120164     -3.45829509001199
