24
Coordinates from ORCA-job 7306optt
  Br  2.04905329246808      1.45998739995613     -0.87923519626771
  C   2.72433895329778     -0.09224222873484     -0.02697935535294
  C   2.12262529453279     -1.32983398969603     -0.23910139033518
  C   0.92811327464745     -1.49729359153407     -1.14021995211386
  C   -0.39303021886024     -1.03923303981232     -0.48763958216248
  O   -0.36266485100066     -1.07577193654179      0.94915607616718
  C   0.04831654465187     -2.17319840394994      1.55877265109916
  O   0.41678011242529     -2.23587559805973      2.67981598592414
  O   -0.06871986285905     -3.28600205593429      0.74143693483397
  C   1.01434046440687     -4.06835700606010      0.50260042919266
  C   0.66348060914148     -5.52195220159663      0.30672826421955
  O   -0.45306694803526     -5.93518771594892      0.37776679760931
  N   2.21354622765916     -3.72397422773683      0.36075092142343
  C   2.69121036991118     -2.40311876144568      0.47541995341184
  N   3.75094624663567     -2.29263873866422      1.26557859399456
  C   4.28373114636831     -1.09465602876550      1.43902009117266
  C   3.81120202691089      0.04921343195316      0.81408010376307
  H   0.85484713480440     -2.53394060664871     -1.45826255960701
  H   1.07235051165638     -0.89974360781023     -2.04069291499434
  H   -1.22863882306873     -1.63674397119059     -0.84819018920340
  H   -0.57959045321447      0.00874035983129     -0.70242482758318
  H   1.54157348284571     -6.14748914992765      0.08401543282380
  H   5.13794831297280     -1.04002302467600      2.10412047395371
  H   4.27430715170230      1.01133469299352      0.97548325803106
