22
Coordinates from ORCA-job 7308optt
  Br  2.82037590342334     -0.84797750718107     -3.09678864303460
  C   3.23194525163793      0.08366098854420     -1.50919030017558
  C   3.03307062761169      1.39397135101321     -1.37251923912850
  C   2.09085294519601      2.34580345983400     -2.00442093532460
  C   0.83761661241261      2.17491351621232     -1.60743339852499
  O   0.02223207028998      3.26461870026744     -1.31283101060393
  C   0.19482499212437      3.73601275141669     -0.05265375829358
  O   -0.26526880890027      4.75895098959587      0.32454530898986
  O   0.91347872920633      2.84913190170679      0.67932823980703
  C   1.58248104949646      3.15846708942073      1.86613472705836
  N   1.44693072060531      4.15700774392717      2.59872941708678
  N   2.42439475043090      2.09166855190266      2.15961927146635
  C   3.01521279516216      1.33200223766851      1.12414508265819
  C   3.22939203154046      0.01145772840891      1.17002682544390
  S   3.75569320297844     -0.93943607831220     -0.19286538384969
  C   3.41448371315769      2.07382690607502     -0.09148496281925
  O   3.83482698318114      3.20186748032185     -0.05053217141090
  H   2.45123418462550      3.33893352827222     -2.24109519283813
  H   0.43789551604936      1.22244230152918     -1.28092259948792
  H   0.72182005441156      4.78784796360396      2.27286243086427
  H   2.96116723341119      2.25794814547263      2.99882544464800
  H   3.05933944194781     -0.57011974970011      2.06752084746895
