29
Coordinates from ORCA-job 7314optt
  Br  1.09497382679895     -0.15578362006623      0.18391541646728
  C   2.94982750690966     -0.06645867830968     -0.07774323885669
  C   3.67845307473878     -1.19317348974759     -0.20317074318791
  C   3.41093127246384     -2.66577778522750     -0.07962954971485
  C   4.82710863473148     -3.26334758265820      0.10812958483525
  O   5.09182658015525     -4.35841471410366      0.52346388864643
  N   5.75943247706404     -2.28773481714821     -0.23457059725133
  C   7.04656606157851     -2.14325371224107      0.45539407992475
  C   7.89269609382248     -0.99563432539703     -0.13454475294330
  C   7.14010229493203      0.33577800473813     -0.39073179255186
  C   7.18785838493465      1.53257201858909      0.58153421224271
  C   5.89567069484833      2.31352412473347      0.23396894482387
  N   4.96596563546833      1.25427317090248     -0.18297973329838
  C   5.67941105466887      0.10692857692848     -0.40200002466828
  C   5.08189002772697     -1.07417561176863     -0.37602305983358
  C   3.57790314712946      1.27978069981365     -0.03317349087841
  N   2.88140496124623      2.32986218816102      0.17735615946886
  H   2.94781918907985     -3.08449280520787     -0.97605695824780
  H   2.78360410097062     -2.93149467505791      0.77051913917525
  H   7.58997826845703     -3.08304848760052      0.39237924499565
  H   6.83685106737805     -1.94122997744376      1.51255472830595
  H   8.30369047264175     -1.33585199764898     -1.08549324437409
  H   8.74011285623549     -0.83140009679584      0.53346275963912
  H   7.44360478960369      0.70645472510129     -1.37581731022793
  H   8.08003766493584      2.14660953570585      0.47441979095710
  H   7.12885387487897      1.17548523922889      1.61200339213407
  H   6.05893933889124      3.03078334776975     -0.57476915867633
  H   5.47988588878040      2.84564903781412      1.08987813824821
  H   3.45060075892916      3.17157170693648      0.17972417484621
