24
Coordinates from ORCA-job 7315optt
  Br  1.08532778591808     -0.22991241991741     -0.20972206929808
  C   2.97235791993557     -0.33181091220790     -0.19797354554736
  C   3.65792187384162     -1.37483965957953      0.41202878661356
  C   2.98649912506796     -2.51103111891062      1.13701391671033
  C   3.04755202154756     -3.83795349555066      0.39941245763103
  O   2.05919090048569     -4.46731200055254      0.13613651225499
  N   4.31163019967591     -4.31744103158571      0.05153848746692
  C   4.52988165719739     -5.52958950946129     -0.66143289182374
  N   3.76314553958203     -6.41166248542233     -1.09005524762851
  O   5.88263281840819     -5.58955840071033     -0.82378640410829
  N   6.49337491989177     -4.47923232820225     -0.25227929112702
  C   5.57314122168140     -3.75888485038756      0.25233891480678
  C   5.85571501858849     -2.46497366370491      0.93654784438776
  C   5.05213654599227     -1.34109073678612      0.33732450039720
  C   5.66842556286921     -0.28647281841589     -0.31824288644786
  N   5.00246204123404      0.71090806613719     -0.88906177647302
  C   3.68097924154338      0.68456621596022     -0.83319336142781
  H   1.93119694622804     -2.31479050988532      1.29662173275323
  H   3.45530309926623     -2.64702713381732      2.11585194001358
  H   2.79556441777240     -6.19714921473174     -0.87435556635650
  H   6.92319183575952     -2.28355575182710      0.82557219143845
  H   5.64807731553622     -2.56345475294573      2.00615029551542
  H   6.75071421846186     -0.24846011075137     -0.38594920253427
  H   3.14657777351510      1.49672862325625     -1.31148533721684
