21
Coordinates from ORCA-job 7318optt
  Br  1.00127905726819     -0.09004810079478     -0.01975862534867
  C   2.88822980783439      0.02325233068597     -0.02263862954946
  C   3.65469169369022     -1.07899501221078     -0.02305339248358
  C   3.14822465341158     -2.43529018665985     -0.02220808206357
  C   4.01171306758242     -3.44643548749570     -0.02254817437799
  O   5.35450682292892     -3.29987865506319     -0.02347623820094
  N   5.89783357436222     -2.04942556310392     -0.02456213591330
  C   5.12633507719377     -1.01955661394814     -0.02446318206201
  C   5.82541551411187      0.26336649072165     -0.02584164295718
  C   7.14842850576462      0.51406614949824     -0.02691441504657
  C   8.25829496056481     -0.34733198772434     -0.02643647799292
  C   9.26305263934536     -1.00381887733070     -0.02599468141064
  C   7.32387521733939      2.03439559368692     -0.02847038065945
  O   8.37437542695600      2.60961290624555     -0.02946869573293
  C   5.95762511936995      2.60339356575666     -0.02842489373879
  C   5.09926095344688      1.57394736404600     -0.02659296161857
  S   3.38126484478061      1.69880327625789     -0.02460476857362
  H   2.08926198249775     -2.63851305944627     -0.02154686744344
  H   3.74144557160453     -4.49225046253250     -0.02217524092431
  H   10.14203650587226     -1.60329179182365     -0.02556328266313
  H   5.74084900407419      3.65899812123493     -0.02925723123893
