22
Coordinates from ORCA-job 7323optt
  Br  0.80059661449637      0.04513682999668      0.31611948030842
  C   2.66775082396113      0.15923911612483      0.11855821080059
  C   3.38767542918740      1.31184760112875      0.07998957345167
  C   4.83003140994768      1.23511865796887      0.01397871086269
  C   5.54806828866557      2.37034903941764      0.08940020870803
  O   5.02161333109328      3.57815433564645      0.19185918571983
  N   3.66010383846487      3.74493664008777      0.15291820434533
  C   2.90233936426449      2.69913962246195      0.09829533467895
  C   1.52033433285268      3.08036505588230      0.01206642721806
  C   0.40860719160323      3.51017567891363     -0.08356875835035
  C   5.56879157872957     -0.04379080244051     -0.08266971438621
  O   6.78353899371194     -0.08684320588277     -0.16978146075165
  C   4.72061457325564     -1.21568883290512     -0.06743637125109
  C   3.37459040864838     -1.11006313315686      0.04292462374408
  O   2.57522516661959     -2.20471550147895      0.04998283122722
  C   3.05368979095206     -3.38336025288761      0.57094149315916
  N   2.59916551863974     -4.50323346598373      0.26812984417184
  H   6.63053056367201      2.37898459023320      0.07984520005457
  H   -0.59171267558488      3.86510650939176     -0.16458368727156
  H   5.19999683305729     -2.17837432310531     -0.18129079981858
  H   3.83576241326926     -3.24826284899654      1.31470482734210
  H   1.87568621049262     -4.43722131041642     -0.44838336396310
