23
Coordinates from ORCA-job 7324optt
  Br  0.98489582975692      0.16636213963770      0.11413341406393
  C   2.85467982645382      0.05237145420070      0.00279715370091
  C   3.48009823025075     -1.13973404993309     -0.03789101606694
  C   2.88952040463995     -2.45340667060227     -0.03975746534846
  C   3.69348894476376     -3.49998657609569     -0.22932582267157
  O   5.03109895568351     -3.41308845548203     -0.40790624850987
  N   5.65716126442985     -2.20926614839472     -0.31843795801736
  C   4.93596075543800     -1.16566704938038     -0.12470503596009
  C   5.63645539773815      0.12911368149388     -0.05812979500034
  N   5.02413021948881      1.24182830219115     -0.07128996990895
  C   3.60284675185392      1.31018030241364     -0.07995635798446
  N   3.02147696319585      2.43333858393017     -0.14847620721233
  C   7.14987380297579      0.17998806559221      0.09301080769918
  O   7.75185026876159     -0.61672269091967      0.76124412726539
  N   7.71755227396626      1.24543745180479     -0.55435852505807
  C   9.08536497768588      1.51097562971788     -0.50714441650580
  N   9.67450254487097      2.49309054777699     -1.03269420796159
  H   1.82721921179839     -2.59353522721598      0.08550791972931
  H   3.37542251955143     -4.53154090213030     -0.26894912010718
  H   3.72084646462429      3.17374424167713     -0.19163043711682
  H   7.09359540838056      1.91162447318282     -0.98788203825150
  H   9.63712781983272      0.75516672323938      0.04379616252019
  H   9.03283116385875      3.12072617329571     -1.51895496329757
