21
Coordinates from ORCA-job 7325optt
  Br  1.38651552583814      0.71711584115191     -0.35997854877833
  C   3.23113181131527      0.35663118035787     -0.37610121656822
  C   3.71175245284163     -0.88074672375312     -0.13376132046370
  C   2.97057408073525     -2.06670654895621      0.18410786491050
  C   3.66061765040508     -3.17774516041725      0.45878582116320
  O   5.00132792782578     -3.26029625738539      0.45074175190048
  N   5.75176557529762     -2.17410530557373      0.09915576538537
  C   5.15704073817262     -1.07637372919094     -0.18204369785785
  C   6.04332182561645      0.06718186022550     -0.60586603092989
  N   7.27487995679497     -0.04140798236313     -0.86084784394492
  N   5.43841593724671      1.32465380416499     -0.72287823175147
  C   4.18377709409990      1.42942618144335     -0.62523662801394
  O   3.65259047818349      2.69127879241371     -0.81425317986551
  C   3.30246779335617      3.36547625714901      0.29138494264002
  O   3.42798002343889      2.97771790282151      1.41198077429671
  C   2.69974443549577      4.73376862461508     -0.03704247581294
  O   2.52277787136474      5.11813530114902     -1.14885230262602
  H   1.89204043153351     -2.06963287150471      0.21491251459700
  H   3.22314315114897     -4.13033796108613      0.72110344563550
  H   7.57617221989712     -1.00880240483930     -0.74045814684055
  H   2.44396301939186      5.30976919957796      0.86714674292456
