21
Coordinates from ORCA-job 7328optt
  Br  1.15268621018939     -0.39454598600780      0.14627754264911
  C   2.98583823150615     -0.05307573051197     -0.06466905620108
  C   3.50820410988779      1.16186540829027     -0.33815980932817
  C   2.69526518889700      2.38002027184312     -0.66968571670785
  C   2.71553217985841      3.45082144762675      0.40189690074444
  O   1.75424361966225      3.79165009484068      1.03621182021723
  N   3.94418347449889      4.06761570175314      0.59020035824797
  C   5.12595185524157      3.66371287992465      0.03275028432868
  C   5.61251756709279      2.47314080035576     -0.42837496171280
  N   6.92873859301644      2.67711632256030     -0.82940724924096
  C   7.15542599633471      3.90915910209052     -0.60319701305056
  O   6.09493563456494      4.58941513675110     -0.07323376833163
  C   4.95489528682330      1.17707694781397     -0.36734009663892
  N   5.70230408367820      0.11872336957760     -0.29907442177361
  C   5.13057117663886     -1.11326041759349     -0.16534443728749
  O   5.65998578106451     -2.17152703778785     -0.18903347301696
  O   3.71547386310783     -1.13480283269331      0.07940861419185
  H   1.65296432119635      2.11729979363045     -0.82098057236516
  H   3.08250970207710      2.81849522772139     -1.59443905030643
  H   3.95869100249155      4.84056471980798      1.24260513700099
  H   8.05408212217193      4.47853478000673     -0.76941103141865
