24
Coordinates from ORCA-job 7337optt
  Br  1.02307390193866     -0.34555636952770     -0.04631416396168
  C   2.87176444548198     -0.10893184729647      0.03880933112453
  C   3.51698339177518      1.06809762990762      0.26874003847592
  C   2.76942377391542      2.35152555592693      0.49566409040703
  C   2.89796239170382      3.36223461117775     -0.64289414873411
  O   1.89874397477141      3.84339087203199     -1.13127289143788
  N   4.12976020332798      3.72377096920537     -1.09414177640490
  C   5.48371274489485      3.35285807525542     -0.71276547605563
  C   5.59946608618737      2.44619257367972      0.50630239104978
  C   4.95760464314323      1.10815558901981      0.28009062800852
  C   5.67717533710044     -0.02840135210917      0.04891892081935
  Br  7.55108773792588     -0.10751498920540     -0.02732592424429
  C   4.98695025050464     -1.24343780593437     -0.16348346767189
  N   5.38176999657443     -2.48591898749627     -0.38249654005992
  N   4.26518322952979     -3.20103451179698     -0.49998031866381
  N   3.20153568917944     -2.49331231512192     -0.37254201020183
  N   3.62698200590368     -1.23396560581960     -0.15547730646618
  H   3.10593101647051      2.81993710825157      1.42248335655985
  H   1.70460876782753      2.17086899083164      0.59402387863780
  H   4.05804979046623      4.37967816276389     -1.85949293544786
  H   6.04349201772197      4.26786942748774     -0.50794847623948
  H   5.96882853089606      2.85341470521387     -1.55651590862870
  H   5.16358611132790      2.93110951081154      1.38040527769289
  H   6.65932396143155      2.31697000274299      0.71121343144251
