28
Coordinates from ORCA-job 7338optt
  Br  0.92321081891370     -0.41907500003477     -0.91683512115765
  C   2.71086409567954     -0.07779590226514     -0.38470474698476
  C   3.49316704559924     -1.08689793634231      0.17018420380339
  C   3.06073884909997     -2.50155667844888      0.40324645011859
  C   3.75019627433248     -3.50844356079919     -0.51143540192003
  O   3.08533507089582     -4.26670830500457     -1.18377136975844
  N   5.11187680182768     -3.56983408702803     -0.53723288035113
  C   6.16921677804546     -2.73514236108329      0.02169117473860
  C   5.73759229999215     -1.71406488244083      1.06750910029449
  C   4.79002148857673     -0.69759043992067      0.50327926232424
  N   5.24282362865802      0.53862849358967      0.30913690425866
  C   4.39360136493523      1.40821121244447     -0.21409461778476
  C   4.88020495895094      2.81366195320999     -0.47696212053244
  O   5.95525614297453      3.18636669879522      0.35135360205781
  C   7.17935774028463      2.71023278739051      0.01375622976158
  N   8.21913442307237      2.89701725726996      0.68413960289702
  N   3.13996687535395      1.15143775691174     -0.57301900883038
  H   1.99819173055137     -2.62458060658435      0.22333062189450
  H   3.25937423253747     -2.78358150913634      1.44031207898949
  H   5.42576491524643     -4.27097708368821     -1.19401231132182
  H   6.66802058360422     -2.19879336985787     -0.79131986557162
  H   6.91034420520306     -3.39456336095151      0.47725820359377
  H   6.62956105010558     -1.19315396479088      1.41144979543988
  H   5.28760590469256     -2.21930689082427      1.92470693535353
  H   4.06830952167976      3.51254797392985     -0.29093466866418
  H   5.15543518913181      2.89593930748321     -1.53480306890667
  H   7.20503616803757      2.15166597065031     -0.92174543221543
  H   8.01779184201761      3.42835652752620      1.53151644847376
