28
Coordinates from ORCA-job 7340optt
  Br  1.10543713730975      0.08831798643319      0.28890550398880
  C   2.96729550983055     -0.12911433902387      0.20611760213365
  C   3.61394899563427     -1.28741787771398      0.41669549813808
  C   2.94853216700257     -2.58126186564492      0.77576171932953
  C   3.02685778575216     -3.67082080193255     -0.28787303801885
  O   2.01817930288317     -4.25132967623082     -0.62694191351540
  N   4.23306036095623     -4.01498434699671     -0.82627085114160
  C   5.58658354067781     -3.49747227982144     -0.69986162405084
  C   6.03828745558991     -2.87403984025024     -2.03393390807686
  C   5.99401962841508     -3.85363399477106     -3.11389320806627
  C   5.93597797427755     -4.69728929817235     -3.96199532371463
  C   5.80806154739929     -2.52266378847667      0.45991854952155
  C   5.05927000268301     -1.23375991174638      0.30450936589003
  C   5.68238479324804     -0.07384492185202      0.03678559637714
  C   4.94102607477436      1.15910276624711     -0.16017959188051
  N   5.35531140080165      2.32422762032488     -0.40007025245933
  O   3.56160042701480      1.03006149909926     -0.08367104681780
  H   1.88787900312348     -2.43705423516555      0.95311046559691
  H   3.37796211949639     -2.97784692221377      1.70020871864618
  H   4.13059456482775     -4.72138917351526     -1.54501623325540
  H   6.23694122733155     -4.35577692696969     -0.50839275140366
  H   7.05740999546659     -2.49243393772082     -1.92829432664420
  H   5.39293631891239     -2.02644183997225     -2.27636448313174
  H   5.88824427351638     -5.43316663470591     -4.72901673479321
  H   6.87787757402464     -2.31790722672461      0.50835307181817
  H   5.53179571430282     -3.01334025122122      1.39503320347527
  H   6.75993854711733     -0.01643949551312     -0.04640390488138
  H   6.36958655763041      2.33771971425079     -0.44722010306364
