30
Coordinates from ORCA-job 7342optt
  Br  4.18643257153813     -0.67892600925899     -1.95831333453264
  C   3.18721792829975      0.13349577939740     -0.59041872445139
  C   2.51125908593688      1.28522951846767     -0.71149087917534
  C   2.27007329810529      2.09559317468255     -1.95469395864989
  C   0.75989372367249      2.34254236512204     -2.02760705689989
  O   0.01256098799485      1.52108033646247     -2.51483965076313
  N   0.33717107999992      3.50524897778533     -1.46171985436007
  C   -1.05662078055180      3.74369824861423     -1.12243225330189
  C   -1.28725128309979      3.81682308839353      0.38917570768807
  C   -0.92321939899791      2.52022447902279      1.13984118728655
  C   0.19896635540355      2.72393291165623      2.16170524449599
  O   0.92026879110781      1.51629632814060      2.44754109518228
  C   1.70427927779875      1.08794095226108      1.46600023033247
  N   1.83484939137682      1.76310770879913      0.39387951546606
  C   2.37775954660416     -0.21259736093426      1.69706720887207
  N   2.22895318647863     -0.86761172227872      2.77227578382227
  N   3.17123085169172     -0.55396065251247      0.60715718880311
  H   2.57119434589883      1.55255093243165     -2.84673715524655
  H   2.81804389677097      3.04012695674450     -1.90711249949089
  H   1.02658543992957      4.01116610182320     -0.92824926883196
  H   -1.62339829469562      2.92235939897648     -1.55987594611569
  H   -1.39560484396489      4.67074534205679     -1.58999687072108
  H   -2.33554658183595      4.07345544766554      0.55005087650344
  H   -0.71264854127160      4.65897622735555      0.79081817447076
  H   -1.79694096108948      2.11511885340504      1.64988169926592
  H   -0.60625165499125      1.77084048252898      0.41538125864471
  H   -0.19020064468824      3.04209580227567      3.12658794600007
  H   0.90872864087603      3.47099955862905      1.80356825666441
  H   2.75227956542290     -1.74139430568329      2.77388934763647
  H   3.68993502027944     -1.41715892202981      0.66266673140576
