23
Coordinates from ORCA-job 7343optt
  Br  1.08372968669227     -0.40241659886930      0.29333319783959
  C   2.91783174492473     -0.09384572955018      0.14790665193613
  C   3.53483469265471      1.13765718924739      0.11655580000614
  C   3.14959402949954      2.50925891583014      0.16292175974704
  C   1.85693991957543      3.18776266763258      0.25779979033872
  O   0.77049312307994      2.66711965914087      0.32175962976113
  N   4.23818209799559      3.28305885759491      0.07952182319631
  C   5.32964752937114      2.50897156714977     -0.01657753055210
  C   6.69012743697952      3.14098233950578     -0.10069433039609
  C   7.61474124623129      2.37497359013370     -0.93630436159254
  N   8.32096165847252      1.73715890317373     -1.57475938236970
  C   4.98463659707382      1.15900596952203     -0.00110040125359
  C   5.71983601494429     -0.03861195277417     -0.07563009074273
  C   5.04204429324053     -1.22003578492911     -0.03877615344224
  N   3.66202989453930     -1.20676546498897      0.07218162271105
  C   5.64920293417428     -2.50414347973924     -0.11104233939794
  C   6.14746059635808     -3.59241561981790     -0.17139473171652
  H   1.97197347821669      4.28595889893472      0.26309022340747
  H   7.14156881455386      3.24981365591830      0.88929755806526
  H   6.58181072008327      4.14278978350248     -0.51727887652400
  H   6.79546436398542     -0.05303567756566     -0.17700948682939
  H   3.18643191655327     -2.09882401532633      0.09487836598944
  H   6.60345721080043     -4.55241767372555     -0.23267873818144
