29
Coordinates from ORCA-job 7344optt
  Br  2.43596382032487     -0.11037067918581      3.21231291017719
  C   2.90067050534431      0.29429773734349      1.43035016226780
  C   3.36807637064502      1.51255873134422      1.08016170034436
  C   3.13613991225208      2.79567185710170      1.82842559418859
  C   1.70542368577748      3.19659814416243      1.38702466381136
  O   0.75816947781733      3.11494684345212      2.13985076682650
  N   1.58697749480567      3.49647749817398      0.06978189766372
  C   0.32672477135157      3.64313603177879     -0.64871048608065
  C   -0.67602238717578      2.49047555618281     -0.50242520479144
  C   -0.11147184120237      1.08528327754274     -0.54090741914474
  O   0.55134483794752      0.82406766017208     -1.77280984837949
  C   1.30437061376239     -0.37851065095175     -1.81581953719529
  C   2.43064106578027     -0.19791201068918     -0.83867756027034
  O   3.23579683729298      0.81265623337733     -1.21672662732455
  C   3.76903656137056      1.69452880260282     -0.31795707468816
  O   4.44783808529049      2.59124167200369     -0.73686168937919
  C   2.42762008539921     -0.62955689643440      0.43275383033296
  H   3.87102422962637      3.54678074928139      1.54324203462135
  H   3.12291750673623      2.66299090396516      2.90533915885584
  H   2.43324995596540      3.63984453772231     -0.45838469851014
  H   -0.17371400303776      4.56400174688955     -0.33983959204512
  H   0.60076319905140      3.75065260312645     -1.69701029734797
  H   -1.42283297480347      2.61543431761059     -1.28978186460535
  H   -1.18853339619730      2.58276633164631      0.45609974938030
  H   0.56948824453153      0.96936297760695      0.30435953684111
  H   -0.92323231545547      0.35998018024519     -0.40671541414013
  H   0.69820376739610     -1.24690644944247     -1.54011391067286
  H   1.65796492933209     -0.47905609480027     -2.84009739859605
  H   1.79840096007126     -1.45544161182824      0.72813661786040
