25
Coordinates from ORCA-job 7345optt
  Br  1.09363694448777     -0.66892223517888     -0.79434322376321
  C   2.96020038843047     -0.53325735258593     -0.56070554105309
  C   3.66703255869200     -1.41881236988552      0.14723374823093
  C   3.05148112940813     -2.56817489627234      0.89401444499451
  C   3.11086658408342     -3.95004102503361      0.26162206409251
  O   2.16072942528668     -4.68476096001542      0.33840412791887
  N   4.30121074118948     -4.35418516639505     -0.34537974719612
  C   5.49483734596702     -3.53280925203054     -0.55446681326009
  C   5.81569163077223     -2.49948548035570      0.51411259018866
  N   5.05241361419332     -1.27180625275318      0.32123966763569
  C   5.70637803005254     -0.04766446927207      0.41308038746301
  N   6.76685394772640      0.20115521698741      1.05192353020461
  C   5.17960499650408      1.09015752829166     -0.45905289283961
  O   5.80516673230701      2.08326873286203     -0.64821793136858
  S   3.63785225700130      0.87889263732677     -1.32534244580320
  C   4.34362362271874     -5.63356128711783     -0.91047459515752
  O   5.30560929148479     -6.04760165569664     -1.49567215722289
  H   1.99503618021891     -2.38488181354002      1.06165405881350
  H   3.52297240463256     -2.64437709717931      1.87775151678702
  H   5.43278209965806     -3.03295275675855     -1.52450429700804
  H   6.32188194066734     -4.23811865699497     -0.61151741710644
  H   6.86584611863857     -2.24070500418456      0.38839956354654
  H   5.69938997487207     -2.91617894870485      1.51944522643655
  H   7.08210771503079     -0.58098265438276      1.62224519660511
  H   3.41979432597620     -6.19619478113013     -0.75644906113874
