23
Coordinates from ORCA-job 7351optt
  Br  1.01053009988296      0.14215368694284      0.04273123836967
  C   2.89051840397865     -0.00063100872392      0.04320141177922
  C   3.50765741860773     -1.23219385297597      0.04366583236397
  C   2.93352193047517     -2.60958129061901      0.04401797464548
  C   4.16641925373480     -3.50204480611867      0.04447822231169
  O   4.18799967234014     -4.70328326453383      0.04473005256104
  N   5.29059770452465     -2.67238692262265      0.04437387558990
  C   6.62566151736072     -3.11681470948196      0.04475802626270
  N   7.04514588194348     -4.30002713204441      0.04513069266924
  C   4.90235837094656     -1.31375049600199      0.04393141341123
  C   5.70929186025780     -0.19071159493456      0.04374017728266
  C   5.06610191296086      1.04126038056358      0.04332856450276
  C   3.67351538347856      1.14662690439761      0.04305788357016
  N   3.23330215561777      2.45372184683646      0.04269622228709
  C   4.19790419086914      3.43111303181610      0.04258396741246
  O   4.02014187461319      4.61419226868191      0.04232942390354
  S   5.80313527792351      2.62134060245117      0.04310960322727
  H   2.32516938701509     -2.82923369091759     -0.83549360204420
  H   2.32498533252360     -2.82865684978574      0.92354825918128
  H   7.33275384289412     -2.29087458159744      0.04472110652434
  H   6.28305325215199     -4.97655768304603      0.04512611468216
  H   6.78796040510438     -0.24332528914652      0.04392377016177
  H   2.25727487079509      2.71266445086064      0.04230976934456
