26
Coordinates from ORCA-job 7352optt
  Br  0.93953734475125      0.10524464243402      0.33037464117017
  C   2.83196618827800      0.06439513141685      0.22862227226547
  C   3.54419579921385     -1.10991801959335      0.38957407087660
  C   2.90887688659325     -2.43281807381938      0.69902410760009
  C   3.10383812290622     -3.41783083694765     -0.43273468083148
  O   2.20431959937145     -3.93258051836022     -1.04217448118144
  N   4.42552253552173     -3.74659635002552     -0.69364138060710
  C   5.57001567469296     -3.28525817727588     -0.05109247984473
  N   5.81508337552191     -2.13458446711610      0.41637745519043
  C   4.94613500446838     -1.04519504978525      0.31034748247404
  C   5.52854436362179      0.20510756143048      0.14881820494847
  N   4.84593584773678      1.32561792915901     -0.01822834307790
  C   3.51240711629267      1.27932350577803      0.00278094997416
  N   2.85395449878324      2.45029291203989     -0.18259795138058
  C   3.54531578957491      3.68604695745336     -0.37009806734042
  C   2.56072018052393      4.80539665931633     -0.55175960443346
  O   1.37126179435628      4.65202302052630     -0.53736639939096
  H   1.84283702192264     -2.34821893232265      0.87603372456089
  H   3.39160473104539     -2.84915074699133      1.58890469691438
  H   4.53000058830931     -4.55142455905295     -1.29655579303574
  H   6.35866113501910     -4.03179896446682      0.00020041217343
  H   6.61036198786766      0.27706636596514      0.13989194635884
  H   1.84603484456481      2.48560176866645     -0.17043865583486
  H   4.20711534433779      3.66388641524855     -1.24486013408225
  H   4.19484579704892      3.93434879766225      0.47910097304276
  H   3.00790842767574      5.80402302866047     -0.70150296650880
