26
Coordinates from ORCA-job 7353optt
  Br  1.33942525612971      0.20470718002476      1.18818570755614
  C   3.12869026032596      0.22131783635625      0.55284321099828
  C   3.83570346484432     -0.97077238346480      0.39413609397194
  C   3.31373663790290     -2.33927309305826      0.69985047079711
  C   3.18398426131745     -3.15608183838801     -0.56805228138972
  O   2.16053986693646     -3.62885117296641     -0.97491947099524
  N   4.38905921471699     -3.38522610534947     -1.23575696573737
  C   5.65004348160921     -2.97233578815203     -0.84952234480891
  N   6.00463045098353     -1.87655805561099     -0.31723512249538
  C   5.13529309801145     -0.81284562640661     -0.09978478413298
  N   5.65270770925854      0.38771453724670     -0.36785011872161
  C   4.87562735734510      1.43506491392264     -0.18046638799090
  C   5.44510917800827      2.80743795338163     -0.47137279054880
  N   6.62655961726590      2.79520766162266     -1.29301720620188
  C   6.50112859000340      2.76451017712069     -2.66593447401576
  N   7.33850127365073      2.36480609298425     -3.52645944015756
  N   3.62263279075717      1.40387805484111      0.28198978977023
  H   2.33703793960681     -2.30654106197489      1.16994800444775
  H   4.01521861111517     -2.85496800244049      1.36358349759707
  H   4.33276933340218     -4.11728581543944     -1.93139594385095
  H   6.43024151339157     -3.69626135981162     -1.07445922227151
  H   5.65560255741956      3.28990181670235      0.48683330432176
  H   4.67096765647508      3.40571816683891     -0.95225904961722
  H   7.37633182825253      2.22018755065161     -0.93233099643536
  H   5.55664811752721      3.18657329704098     -3.01472492152672
  H   8.17780993374269      1.98297506432849     -3.08882855856238
