28
Coordinates from ORCA-job 7358optt
  Br  1.29245296040049     -2.22921943391342     -0.23056409800328
  C   2.49298547240890     -0.77209625544683     -0.20761970733690
  C   2.11461042843798      0.51980073589962     -0.05104367764628
  C   0.67117133022220      0.92608651478190      0.11141536623874
  C   0.47125281464165      1.73078909940746      1.38422505759214
  O   0.80672353013730      1.31534408815019      2.46629772899995
  N   -0.06793719986905      2.99777290131085      1.25693634640697
  C   -0.20140692996234      3.71337280737782      0.02010663811769
  O   -1.15246304928721      3.57095043300705     -0.68397433914750
  C   1.03384590802905      4.51054613947312     -0.37229597147021
  N   1.99303385343846      3.50355615589424     -0.80225253558793
  C   2.92982529245090      2.96092707476755      0.16884198147564
  C   3.20201678375446      1.48620390434335     -0.05225779780305
  C   4.48601055455218      1.09853823658456     -0.21828854247087
  C   4.87274845159721     -0.28782150744550     -0.38921352619674
  N   6.03267563864455     -0.79814403015201     -0.54604695796249
  N   3.78494193012491     -1.15557995103096     -0.37103977116459
  H   0.05394028290630      0.03702747098122      0.22484835712690
  H   0.31867565941116      1.46438361446306     -0.76580269673051
  H   0.06231584910650      3.55670695674762      2.09172989805209
  H   0.77347729602854      5.15359559057270     -1.20990673575250
  H   1.39806025645693      5.12813703950910      0.45713069595574
  H   2.42997590897603      3.73333670732219     -1.68052676306477
  H   2.51649814704091      3.09669228862543      1.16985368209393
  H   3.88658880775693      3.49345615539790      0.16029122032378
  H   5.28412621723129      1.82984275684354     -0.21701560827369
  H   6.74721815096130     -0.07793951059259     -0.54128821452453
  H   4.00863565440245     -2.13426598287919     -0.48154002924771
