22
Coordinates from ORCA-job 7361optt
  Br  3.63499496770610     -0.34508028550702      2.67617815262367
  C   3.22325705164999      0.38486452858608      1.00881443829417
  C   3.01410069030690      1.68778593634062      0.75530925932502
  C   2.80997322462695      2.77688871725574      1.77712607064374
  C   1.28895327801339      2.93477486642736      1.90987945734296
  O   0.66790910894300      2.59072930309444      2.86147234423896
  N   0.65202405880439      3.41787095724588      0.71205668474780
  C   0.09999417318507      2.44801949688304     -0.10531725503870
  O   -0.30273304567979      1.37731911662211      0.23710194177804
  O   0.16236162556153      2.86496180103537     -1.40773017744471
  C   0.35240191825603      1.84859780979412     -2.36102264008223
  O   1.74373777519521      1.55596728469117     -2.54104519233149
  C   2.35842069793827      1.18456891705733     -1.40104607696409
  N   2.66926138335605      2.05706141023387     -0.53339234817729
  C   2.58035183772251     -0.26969148769173     -1.19188542982653
  O   2.37065367000549     -1.14674736123266     -1.95985590334671
  O   3.12957103938880     -0.54623814119869      0.04535186485168
  H   3.26322742945462      3.70091035024376      1.41315556220571
  H   3.21458438639965      2.51925175090842      2.75089006910939
  H   1.23936973312431      4.03092636319366      0.16027878831386
  H   0.01270371461452      2.23052366643972     -3.31591686966456
  H   -0.17811871857302      0.94673499957736     -2.05840274059870
