20
Coordinates from ORCA-job 7362optt
  Br  0.88765218576726     -0.22939444830115     -0.36164552000733
  C   2.72024425140223     -0.01875959285207     -0.21825101121849
  C   3.38407205267177      1.15169356770557     -0.03605324619067
  C   3.11311822997800      2.57205486047645      0.12340670359322
  C   1.87920599661962      3.37951350219731      0.16780584603417
  O   0.76495972893673      2.95123442874304      0.06339939823878
  N   4.23816352718347      3.23175628973528      0.25329740141022
  N   5.25368479957999      2.38428442443422      0.19434828687015
  C   4.82587028416292      1.08799207649093      0.02478255747139
  N   5.57839804003957      0.05176597634272     -0.04616685525863
  N   4.89167118555850     -1.09292191721411     -0.18699272566761
  C   5.68290654248104     -2.28930134211835     -0.23977035125912
  O   6.79559977965350     -2.29609048145595     -0.65444456972871
  C   5.05608578455897     -3.52107417403658      0.41480367326949
  O   4.74653963789476     -3.47909348848050      1.56606386977075
  C   3.50922589790563     -1.24932108944337     -0.36274511258269
  O   3.06288633748478     -2.34332462583554     -0.63652927878006
  H   2.09078071996679      4.45302203288108      0.31388474136633
  H   6.20208740755259      2.70781674695699      0.29100205580808
  H   5.04484761060183     -4.43285274622596     -0.19919586313924
