22
Coordinates from ORCA-job 7364optt
  Br  0.93017664002571     -0.13275814626525      0.52439711574413
  C   2.79408169284893     -0.21604254246109      0.33363558429622
  C   3.56175658758978      0.86985715451575     -0.00572629019759
  C   3.23969522777949      2.27648601497920     -0.22094915597410
  C   2.07516238651768      3.14524833339423      0.12313071565491
  O   1.33397563780817      2.93725572228230      1.03640739680224
  N   4.26143802856843      2.93173102476089     -0.67138836670495
  O   5.32326855295709      2.10629250848528     -0.75526039865604
  C   4.93472931527151      0.85275106675219     -0.33318814343417
  C   5.79471038166361     -0.21379906907851     -0.27875567112393
  N   7.10632939683263     -0.19408828797142     -0.58526763244086
  C   7.87386254141309      1.00753515255153     -0.90231479702013
  C   9.28639458804176      0.66465179331396     -1.01544791232906
  C   10.44003613235089      0.36387074033059     -1.10517074080236
  S   5.14989308725260     -1.73302155547110      0.22910266112915
  C   3.34500842507285     -1.53422796185571      0.48811416024433
  O   2.78674107157196     -2.55482259897192      0.78151301457457
  H   2.01687861510346      4.05476976452548     -0.49725038721089
  H   7.62428793347159     -1.05530799933237     -0.50880651389788
  H   7.73642876076024      1.75703778787450     -0.12032935734601
  H   7.52126490979908      1.44453789984918     -1.83847529595507
  H   11.46988008729929      0.10604319779228     -1.18196998535249
