24
Coordinates from ORCA-job 7370optt
  Br  0.99229707646155      0.04043029266689      0.05303217990677
  C   2.88542611619345      0.04732855921759      0.06657869193505
  C   3.56313123529381      1.24314399261307      0.06234896068455
  C   3.04265291767883      2.64882393288782      0.04128195376741
  C   4.09370654777518      3.77049428970210     -0.00637680527063
  O   3.75742203189101      4.90909852984856     -0.06953272435603
  O   5.43988823149854      3.50370872910112      0.03073321787466
  C   5.85840935199512      2.20564890074704      0.06474836046051
  C   7.11294823275632      1.67864100324989      0.07624905022058
  N   6.99071908617026      0.29225845896418      0.09220424619617
  C   5.66654671682469     -0.04828809661756      0.09217885159616
  C   4.94263139744786      1.13998788483624      0.07959995947943
  C   4.95136293272827     -1.24795652220803      0.08705013268622
  O   5.65468043933379     -2.42752246502328      0.11684214896244
  C   5.23420460753535     -3.44963205612700     -0.69085227204574
  N   5.63616471801678     -4.62661174906448     -0.58591399630672
  C   3.56953264825501     -1.18678055212069      0.08621155567000
  H   2.43085132031309      2.86299319508339      0.92146591829252
  H   2.38883634922949      2.82621324645799     -0.81547053070238
  H   8.07729979003582      2.15551821811645      0.07209834093621
  H   7.75802473359404     -0.35525423768404      0.10866215762619
  H   4.53054719379457     -3.13863466759466     -1.46084912458892
  H   6.28126565217040     -4.73313672820965      0.19756176591440
  H   2.99745067300673     -2.10447215884293      0.11614796106117
