22
Coordinates from ORCA-job 7372optt
  Br  1.13077909668711     -0.11176231109687     -0.02869288098981
  C   2.99707568994865      0.03864252365645      0.03722775508880
  C   3.67100501466388      1.24125339556141     -0.11491638688301
  C   2.97489956909262      2.55515839378973     -0.33507576909940
  C   3.63817077173395      3.68452940082173      0.42598274843285
  O   3.04136136931676      4.57124323209476      0.95362546654557
  O   4.97978167342014      3.63304946698228      0.48826949692113
  C   5.68686423097364      2.64605974393411     -0.25961143706604
  C   5.08148719950857      1.27545149976620     -0.10013113356036
  C   5.85854604169901      0.12717731071983      0.05197172216114
  C   7.33760230359375      0.07589309222645     -0.00117895614553
  O   8.03281560307016      0.96205584194998     -0.42254476684325
  C   5.14125402092952     -1.05594869721272      0.23692235087263
  C   3.76165093467663     -1.10827768973208      0.22705471785004
  N   3.41876523850805     -2.43748304472331      0.41577410567575
  N   4.43810093197471     -3.12398892900511      0.53014058534565
  O   5.59287869009524     -2.29602551829642      0.42154833025856
  H   1.92968116625723      2.53106715011194     -0.04444084926016
  H   3.01450404419395      2.81559790144695     -1.40008316632044
  H   6.70788647369625      2.68338638299541      0.09815867889525
  H   5.69554599259426      2.92452857843396     -1.31936538837387
  H   7.77634394336585     -0.86760772442471      0.36436477649449
