26
Coordinates from ORCA-job 7374optt
  Br  1.69772829205257      0.03629919313183     -2.62065885102706
  C   2.60363050078812      0.22951083087261     -0.96972970290465
  C   3.33151127070430      1.33367603298081     -0.69915986258026
  C   3.35298956555394      2.59689929864769     -1.50640244269209
  C   2.00994640137881      3.29728883362033     -1.37109409304653
  O   1.40853178038024      3.83446994061742     -2.25009005844348
  O   1.55575058080504      3.19575292391905     -0.10377977793291
  C   0.15038862094500      3.33523215862547      0.11167122157223
  C   -0.20105442592135      2.41793646840847      1.28197378625724
  C   0.37371681823623      1.03868037708636      1.01842212771819
  N   -0.14552452558190      0.13819303989050      0.30346531508201
  N   1.63855526307956      0.85492304830111      1.59406274942232
  C   2.60340028130701     -0.05978684757508      1.28120759571415
  C   2.70295880985581     -0.75804734788222      0.10330247471797
  C   3.99198602540338      0.45796806890283      1.46614172604297
  O   4.91756800999696      0.20432370300997      2.15594020041536
  O   4.09271712291292      1.45288897776067      0.46006424397967
  H   3.51655534343936      2.40931870435003     -2.56479937106539
  H   4.13780819923588      3.25454673865546     -1.13197429170481
  H   -0.37499242528797      3.03113808026695     -0.79448178737834
  H   -0.09436949712891      4.37550886290126      0.32689620750500
  H   -1.28524206610069      2.35337018643193      1.37482323194483
  H   0.18813210227282      2.83360106194154      2.21362349872434
  H   -1.06671455526277      0.41687701761949     -0.02590422410333
  H   1.92909148754766      1.58687550968804      2.22374656398946
  H   3.49093101938795     -1.49944486217256      0.02373351979309
