24
Coordinates from ORCA-job 7375optt
  Br  1.05372383645062     -0.30651505181093     -0.06853347177453
  C   2.92726290178867     -0.17202571545049      0.13756175021458
  C   3.72377866479792     -1.22446578299553      0.36537116097962
  C   3.16228900542326     -2.59271349466805      0.64849028229843
  C   3.39999925669823     -3.71406552984796     -0.35799749046555
  O   2.49794458940637     -4.28184652711229     -0.88558046967007
  O   4.66436280845241     -4.18422780938913     -0.52573659486380
  C   5.80022001811117     -3.32420913741684     -0.55893847000996
  C   5.88747560859941     -2.33392573883282      0.61120083516153
  N   5.12523171181851     -1.10824910906040      0.42864663748813
  C   5.84320048135999      0.03201402143858      0.03516000147500
  N   7.01774615056850      0.09120252723472     -0.42222423335483
  C   5.18057742989632      1.38416132024053      0.24033848193459
  O   5.80864956366627      2.37788733791810      0.43357093249234
  S   3.42400598638424      1.49773168250913      0.06665617921145
  C   5.87076164112130     -2.64006117866309     -1.85237715022155
  C   5.89776189262638     -2.05756863220319     -2.89647061624554
  H   2.08518204435199     -2.52306600089056      0.73390109418514
  H   3.53700700615980     -2.93879121740927      1.61534985819251
  H   6.64008534535514     -4.01457952671962     -0.46828461927639
  H   6.92830948712205     -2.05842716834502      0.75744508785648
  H   5.57484077583519     -2.84337716279960      1.52182939254041
  H   7.42691564254071     -0.81291433169238     -0.63935794644565
  H   5.93166815146536     -1.53896777403380     -3.82602063170236
