24
Coordinates from ORCA-job 7380optt
  Br  0.85326666721069     -0.17167150124814     -0.03254722820346
  C   2.74092986938338     -0.09222846446671      0.02223210626927
  C   3.50010967204357     -1.15824312811176      0.34250556416272
  C   2.92883443642977     -2.50626232197762      0.69347525757749
  C   3.21403099228759     -3.45657220142140     -0.44285898307704
  O   2.42400446640427     -3.88215529239325     -1.21496600337102
  O   4.53436725088322     -3.84588536977161     -0.56163838421352
  C   5.53258082745933     -3.34736900242122      0.21921189486733
  N   5.74119070716745     -2.17285921155766      0.60976869500604
  C   4.95212012251346     -1.04966859318980      0.31579019676067
  C   5.63901018083300      0.08697212802469      0.05994666094273
  C   5.06152114138006      1.36713638969291     -0.28794046155161
  S   3.29035182857353      1.48801724066496     -0.39285976725545
  N   5.65339386801213      2.45924461794187     -0.54041245707992
  C   7.10743261707025      2.48258652211676     -0.49461470470150
  C   7.63113770512249      3.81533851787550     -0.79311022302749
  C   8.08741776823905      4.89458145908174     -1.03349955852036
  H   1.85405020452838     -2.46770610776213      0.82523917759006
  H   3.39132847541136     -2.87928197470599      1.61037792716235
  H   6.24654629007274     -4.12971366800837      0.45554109899162
  H   6.71720978832023      0.02496875011263      0.11605404556778
  H   7.53081739161393      1.77477638686588     -1.21748295554352
  H   7.47292583708847      2.18181861100919      0.49452939577088
  H   8.48342189195158      5.85817621364956     -1.24774129412406
