26
Coordinates from ORCA-job 7384optt
  Br  2.44921274017087      0.44491534829848      3.47453966866752
  C   3.11185237762181      0.63028107137756      1.71478225912408
  C   3.56687282318632      1.82388660373308      1.26165039998235
  C   3.18535544095980      3.16196845757996      1.79832329405526
  C   2.01632794187298      3.75487737514356      0.99500568664411
  O   1.45687126460209      4.75191433900406      1.28462139687984
  O   1.71941285024807      3.11775585514541     -0.23061609214280
  C   0.97932477714419      1.97847493630453     -0.21884937272881
  N   0.39419489072332      1.60133888830930      0.82309385362018
  C   0.94924355874407      1.30383224416173     -1.59419746026990
  O   0.90447532750374     -0.10835798160915     -1.51558679348677
  C   2.14877318869811     -0.80816858056351     -1.54522160025443
  C   3.05943867923404     -0.24939617429422     -0.48866162234787
  N   3.83693400673690      0.80170056179832     -0.87774290225069
  C   4.17265273110198      1.87935546686665     -0.06779012612461
  O   4.82435782091302      2.80506841925326     -0.50349035413444
  C   2.85183747348308     -0.46123619502784      0.83134082312896
  H   3.99817071490357      3.88305218541800      1.69556927269593
  H   2.87147950802217      3.13662100979339      2.83864465984023
  H   -0.09680841909053      0.72406117002322      0.66208173263192
  H   1.78601606653612      1.66090313880729     -2.19726742526778
  H   0.02619059169293      1.61098179099185     -2.08836203449318
  H   2.59884061977496     -0.72084091975170     -2.54070503177637
  H   1.90258667153853     -1.85008040693484     -1.35488381312244
  H   4.06675393851815      0.92811801858510     -1.85478574885024
  H   2.23663241515966     -1.28402662241353      1.16350732997998
