27
Coordinates from ORCA-job 7385optt
  Br  1.17520717295655     -0.00987522445925     -0.72675817084377
  C   2.98621995065961     -0.02966376160346     -0.14664685200249
  C   3.72846493556596     -1.20445840879733     -0.24645081573701
  C   3.22563915664420     -2.52747930462641     -0.73791145261830
  C   3.88442569604099     -3.69107100561331     -0.02342725461846
  O   3.33018534449114     -4.71677789888733      0.21063850497389
  O   5.17356778751144     -3.52449136179696      0.37975179070182
  C   5.87780662707948     -2.38012622822617     -0.01984254533407
  O   6.22150786082175     -2.56395471629428     -1.36625229851378
  C   7.17051783840183     -1.63369577467510     -1.85210900331081
  C   7.58225458595520     -2.08650774769651     -3.24508247965925
  C   8.55171313356820     -1.16187875716280     -3.82370018410664
  C   9.34473906487517     -0.38203505063959     -4.26753937886366
  C   5.05193687399794     -1.12923321418192      0.16075558949518
  C   5.56794282582550      0.05459901080474      0.65693685275182
  C   4.72202461100456      1.15124070454803      0.71893178004408
  N   3.45544132772980      1.10635272080993      0.31588080977044
  H   3.44619421019977     -2.63908243956413     -1.80441845697646
  H   2.15276947938405     -2.63750445703944     -0.61001937850487
  H   6.77937846512008     -2.35370242719656      0.59998560692460
  H   8.04493555441375     -1.60711190364213     -1.19105349114793
  H   6.74293458310342     -0.62724982114943     -1.89582133690219
  H   6.69531477252811     -2.14096367506112     -3.87932991519774
  H   8.00566931193620     -3.09054605520404     -3.18769278771144
  H   10.04851743582944      0.30577565165192     -4.67174405366303
  H   6.59716420946599      0.12555322912014      0.98578232126283
  H   5.06852718488977      2.10388791658254      1.10113659978725
