22
Coordinates from ORCA-job 7387optt
  Br  1.11287130484761      0.17121320158390     -0.18626370590542
  C   2.98998981037739      0.02922720973646      0.04224778241230
  C   3.59130740945744     -1.21040524526771      0.31642823620201
  C   2.84114718422097     -2.49913084075073      0.52416385932712
  C   3.11018656367880     -3.59042710590773     -0.50375788119683
  O   4.37278798690346     -4.25850888344315     -0.26496181355699
  S   5.68940906550445     -3.47680743483230     -0.59374492117201
  O   6.75793308334828     -4.36951924105515     -0.35217231827428
  O   5.52118182141371     -2.77808440350560     -1.81495322034759
  N   5.74408778893787     -2.31802704501954      0.60388523443587
  C   6.59190804329833     -2.45116539835279      1.71771061026706
  O   6.66723629132002     -1.61067691270861      2.56201186040755
  C   4.96481853661570     -1.13960431308170      0.41485027055334
  C   5.60237480451761      0.09090946379351      0.28802325606185
  N   4.94386490597149      1.20690018293261      0.05163530870583
  N   3.63112089906488      1.16678312794149     -0.08483915857780
  H   1.77257169923707     -2.29597086905642      0.51738949023620
  H   3.09120873419416     -2.89456018370482      1.51260081057489
  H   3.09854754121499     -3.21381681287932     -1.52609001198253
  H   2.37835502271624     -4.38686769282595     -0.39951365107524
  H   7.15423050747953     -3.39039938088656      1.70428088475087
  H   6.67786099567994      0.16993857729012      0.37806907815379
