24
Coordinates from ORCA-job 7388optt
  Br  2.92464914157768      3.16688586031227      3.48160354880573
  C   4.52116536852937      2.88934297235015      2.48826351833967
  C   4.52069352094129      2.77885888846726      1.14342899943857
  C   5.66869778326450      2.19101257012385      0.49366566726283
  C   6.61732364201874      1.49034341972306      1.15815320175766
  S   6.69700469515713      1.37497568726032      2.91599248723812
  C   5.75917159094851      2.82008461043870      3.28086504657924
  C   6.19779134522030      3.78062295291129      4.11643662185815
  N   5.60800225149373      5.07857705906355      4.14850687282628
  C   5.23407104353186      5.50592551247714      2.89498797531496
  C   4.09613990661909      6.03233439655436      2.36833074108715
  N   3.95334667195266      5.35256793219702      1.17929162202102
  C   2.95813887092500      4.68975557055674      0.75452182086859
  C   3.37078718270161      3.31547132018287      0.25878618724082
  O   2.89554677369377      2.67754783361396     -0.63527238110047
  C   7.61001057318333      0.72350158010326      0.48960481238737
  C   8.45595356730480      0.06486144228919     -0.04829903441682
  H   5.70270758618876      2.20221167496511     -0.58815456376035
  H   7.07963993105589      3.62819320688866      4.72581167151569
  H   5.03969937060994      5.32719001155087      4.94706236798828
  H   5.91583119825221      5.12882494687848      2.14612605393817
  H   3.26650048465734      6.46308924842337      2.92168309432823
  H   1.91304272624625      4.83977424237230      1.03741620636818
  H   9.20108477392614     -0.51595293970382     -0.53781253788709
