17
Coordinates from ORCA-job 738optt
  C   1.13796477144982     -0.29661937556692     -0.06503059871409
  C   2.64989651864013     -0.15365153758927     -0.09064575096762
  C   3.09950124298706      1.29062538496352      0.02362379477842
  O   2.29811036712812      2.19102776683449      0.12599286713451
  C   4.55085866660389      1.60050144285853      0.01090962109904
  C   5.52243483848401      0.69655680251734     -0.08175643272036
  C   6.98016116526858      1.01625810825258     -0.08894872837984
  H   0.85093900898849     -1.34509311741733     -0.13972525514858
  H   0.68472026023673      0.24894282754051     -0.89141452239424
  H   0.72749808706544      0.11304357525458      0.85679676899152
  H   3.06771891486625     -0.56765346203147     -1.01303124883364
  H   3.11116676592296     -0.71622285495779      0.72635937022725
  H   4.77944178948347      2.65888021219472      0.08728805441314
  H   5.26246090490084     -0.35579481415776     -0.15553160246621
  H   7.15259190701182      2.08870936620762     -0.01515347030400
  H   7.44888553195272      0.64737314184235     -1.00398601986010
  H   7.48464925900964      0.52211653325430      0.74425315314480
