21
Coordinates from ORCA-job 7390optt
  Br  6.42728489795313      2.22595110791968     -2.68906914311110
  C   5.70863461713867      0.50056144799193     -2.46987390197670
  C   5.98644798604872     -0.21754867069374     -1.35839989528182
  C   4.91558887459016     -1.22404340796531     -1.22325372480239
  C   4.76211472357858     -2.01445105674772     -2.30346722539108
  S   3.60735140737689     -1.29403158054910     -3.42279441246128
  C   4.95658096030870     -0.05707130015293     -3.66415605945624
  N   5.35045009815715      0.07570739938654     -4.85397916769405
  C   6.44867450907630      0.77014849774320     -5.35861027749048
  O   6.38852283078631      1.61903934961076     -6.17712244216750
  O   7.70389961372362      0.32169625843239     -4.95484629028749
  C   7.87122599267835     -0.54635228336441     -3.93103099002495
  N   8.63676588332095     -0.24566076187171     -2.98683761280087
  C   8.78649509681939     -1.05042472678832     -1.86590571480028
  N   8.19323234052770     -0.89286914731297     -0.75658419733604
  C   7.18960751488609      0.05582148345883     -0.49455035534521
  O   7.27502584471809      0.90211198610974      0.34180756548066
  H   4.04631208140738     -0.87498967028051     -0.67163986010475
  H   5.64085725095661     -2.42606519459459     -2.79033003091979
  H   7.30146290537588     -1.47330018122948     -4.01413923466746
  H   9.54246457057123     -1.83122954910227     -1.94021702936117
