21
Coordinates from ORCA-job 7391optt
  Br  10.72817733383092     -3.16528676239737     -2.92453240554204
  C   9.01908241911208     -2.38483232867488     -3.01324530430936
  C   8.21617554322314     -2.42074847724985     -1.94771201758019
  C   6.86236218334561     -1.87593350117506     -1.87523155455633
  C   6.27843318628775     -1.22548388919677     -2.88370715609375
  S   7.06477157213589     -0.95341103116493     -4.39766471373574
  C   8.65363315840693     -1.75442604267040     -4.29261083021823
  N   9.44932083384278     -1.75992777674008     -5.27545767781765
  N   6.21916079281373     -2.25101703981810     -0.66153215546131
  C   7.10273872264169     -2.85176332621911      0.00517606974232
  O   6.97630891145241     -3.70421254806132      1.03192226405343
  C   8.00366409545736     -4.65636951087264      0.88529578410061
  O   8.11150479694037     -5.58582418239628      1.60503535959738
  N   8.75912847706652     -4.31082661923705     -0.22163077767683
  C   8.51500062241148     -2.92044964888858     -0.54968045460472
  C   9.43834416002926     -2.00645018970780      0.13358401144900
  C   10.18590645772057     -1.27232824530765      0.71008033105424
  H   5.26690804932839     -0.84876705259387     -2.81722496180155
  H   9.07773595666812     -1.28842647615393     -6.09773260885437
  H   9.68934893612935     -4.70037855630044     -0.27753938320062
  H   10.85429379115558     -0.62013679517385      1.22140818145573
