25
Coordinates from ORCA-job 7392optt
  Br  1.02180901240798     -0.16988867341373     -0.79711137743484
  C   2.81390244648272     -0.10926788283506     -0.24697892713458
  C   3.43888715506992     -1.14702734152199      0.34947069101117
  C   4.85477218256068     -1.19320143692156      0.63332364859246
  C   5.69278916078355     -0.16589537890370      0.45154304926092
  S   5.20270347000355      1.36074997309150     -0.16234283790095
  C   3.47219815710389      1.16911433775039     -0.57126201205082
  O   2.93131965520339      2.11118088740647     -1.08208412455523
  C   5.20912409386672     -2.58116178276186      1.11390476081986
  C   3.90629664886510     -3.01401729362606      1.77922605432106
  C   2.86534846120680     -2.51113054497767      0.74907105709238
  C   1.52557574110738     -2.53463621674669      1.31120996131518
  C   0.47607639699975     -2.60786097450883      1.87954099294507
  C   2.98238324022041     -3.39115992479025     -0.52244509862225
  O   2.03143968669810     -3.70947113572814     -1.18857351828345
  N   4.26278145016104     -3.73444620767600     -0.84447357005097
  C   5.47602788925252     -3.51627840844388     -0.06695672861859
  H   6.74949228636533     -0.23698155357891      0.68126318680753
  H   6.07233268257447     -2.58726847360532      1.77815365933138
  H   3.74827702763644     -2.50601544397500      2.72942662344074
  H   3.82557453140998     -4.09049235774115      1.93022893323961
  H   -0.47621928920243     -2.65836766504605      2.35091225547778
  H   4.33207222127813     -4.28722563969783     -1.68608025307485
  H   6.24507017945434     -3.08837503236612     -0.71379056665756
  H   5.84596551249019     -4.47287582938249      0.31482414072896
