22
Coordinates from ORCA-job 7394optt
  Br  3.76197063026832      1.89975379559098      2.15764349776112
  C   4.46171872534675      0.92853530971976      0.71276311436497
  C   5.36103705374567      1.48573482182722     -0.13720239370293
  C   5.99397105043529      0.75143534227817     -1.19030663600487
  C   6.26169679613251     -0.57349266632071     -1.08632974900641
  S   5.24981642632599     -1.61928584390795     -0.16970013362512
  C   4.07275781063456     -0.47728130174603      0.64498087174463
  O   3.14426125424136     -0.99710559617802      1.19301834602051
  C   7.74967608163665     -0.78538946396348     -1.12384508976724
  N   8.49097314849828      0.23734139958910     -1.36661444598774
  C   9.33663077246383      0.34141287107599     -0.28316394019714
  C   9.35116210268641      1.74474360542110      0.25878163437329
  O   7.94926112104949      1.90051215503792      0.66732782491373
  C   7.14684484451407      2.89939308193320      0.24924853805366
  N   5.91066977199258      2.77307429020511     -0.00246719483787
  C   9.22226934906663     -0.80152618566980      0.44470014777126
  O   8.23472741828267     -1.55173414760781     -0.10693217364364
  H   6.67220901242455      1.34023331160241     -1.78274293790465
  H   9.96987180605736      1.86267588752281      1.14477500473176
  H   9.60156659325481      2.48414650618418     -0.49998685204192
  H   7.60659379405372      3.88487306987754      0.18918931070976
  H   9.67831443688842     -1.18305024247170      1.34086325627484
