25
Coordinates from ORCA-job 7396optt
  Br  5.42406461776722     -1.09220337145757      2.82232474192607
  C   5.41387371850365     -0.47331103887687      1.04272201784709
  C   6.50469527150232      0.12245699149119      0.47598300683585
  C   6.09031762495768      0.61565213668966     -0.85676727822114
  C   6.13200319624116     -0.52006889853271     -1.65060074204441
  S   4.57156097971909     -1.28416881419029     -1.61687589370371
  C   4.25420983987632     -0.94082695941259      0.23926949550747
  O   3.18518295854328     -1.27002549499084      0.63620328021010
  N   7.31212633011491     -1.17645421960136     -1.92476554501041
  C   7.76792079752148     -1.96104028867423     -1.02792946705992
  N   9.05300722396652     -2.39646037768927     -0.97533874764403
  C   9.68551277245326     -2.42964138028214      0.33680851473574
  C   10.50806344171288     -1.18423443114588      0.66056666279143
  N   11.66190701666239     -1.35032050296561      1.14364448428604
  N   10.01284126645401      0.09003982455438      0.28337946083265
  C   8.72272002667149      0.51992435291897      0.26434829142751
  N   7.79800434060567     -0.08275969604342      0.90893506840792
  H   5.15943552902646      1.16483373906118     -0.86516258322943
  H   7.16818654991466     -2.27607751183810     -0.17170055096580
  H   9.63145726107884     -2.06119399336868     -1.73549543490406
  H   10.38135452019259     -3.26174086192774      0.41523578893365
  H   8.90806461863514     -2.55580651395878      1.09049347533802
  H   12.12730625477941     -0.46919304146599      1.36049463323706
  H   10.71405577848272      0.74837045239944     -0.02117766844863
  H   8.53712806461671      1.38824989930727     -0.37259501108505
