20
Coordinates from ORCA-job 7397optt
  Br  1.75629657527165      0.58171857159090     -0.47559701228955
  C   3.56692367597144      0.23069009170207     -0.18930874421405
  C   4.04872724399036     -1.03923906331365     -0.09070685267328
  C   3.34700725327253     -2.29550255652364     -0.19186654383185
  C   4.17060304667078     -3.34910450675997     -0.07952667659137
  S   5.84464386099981     -2.94846704968704      0.14481531680402
  C   5.45366848585870     -1.24690218117503      0.12741000298261
  C   6.31562552913370     -0.19602627909527      0.24038784706175
  C   7.75261079782972     -0.42118672037546      0.34400344059426
  N   8.68017880390529      0.39328397273296      0.04181628047227
  C   8.29898030533620      1.65256297143938     -0.41645275319019
  O   8.57003660403746      2.13357690116349     -1.46461015336781
  N   7.60691454254494      2.42570723156816      0.60583288069455
  N   6.44027647738366      2.19827680041960      0.84831611209180
  N   5.79669613290322      1.08952517416504      0.16681122605528
  C   4.42544628597176      1.39745258161661     -0.05273218250727
  O   4.07067330489667      2.54627142243942     -0.09888472571435
  H   2.28129553903531     -2.36540078378108     -0.34498594913591
  H   3.89619094024472     -4.39217869144249     -0.12123619276038
  H   8.04620459474204     -1.41305788668402      0.68251467951947
