23
Coordinates from ORCA-job 7399optt
  Br  1.11123755361717     -0.08632077912722      0.26878115306053
  C   2.99083789478499     -0.00252415403298      0.13225987350491
  C   3.69403473876171     -1.16033588014072      0.01289597934683
  C   3.24791335780164     -2.52662832375401     -0.11696830224459
  C   4.26773681089159     -3.38608286189025     -0.24682058743267
  S   5.84458495239398     -2.63298883247898     -0.20760916517318
  C   5.12873694664859     -1.05638667792610      0.00795260929265
  C   5.76240729339324      0.12135658618886      0.20358967560569
  C   5.00478285330343      1.33149058491843      0.42681349318831
  N   5.45421244917725      2.47732151820591      0.77781179373807
  N   3.59852813389667      1.21508129509218      0.21019638276755
  C   2.84138479855338      2.44628501034151      0.18498271270037
  C   3.24558428741613      3.48703385990062     -0.79999553720826
  C   1.96939740177069      2.73523624772556     -0.99766037618032
  H   2.20831712119063     -2.81663148694290     -0.12382747880727
  H   4.20453884838898     -4.45517488471421     -0.37284512659540
  H   6.83993891534772      0.19613170331453      0.25183912173025
  H   6.46474587454437      2.43776501921838      0.86764366381023
  H   2.52043094555567      2.78470621099950      1.16149045671004
  H   4.07766328473700      3.24204844114511     -1.44312647807852
  H   3.21909730048796      4.51223252424245     -0.46300062984312
  H   1.94746356782648      1.99371536726459     -1.78395991335506
  H   1.02242466951068      3.21966951244973     -0.80644332053703
