23
Coordinates from ORCA-job 7405optt
  Br  0.98060487561373     -0.20023729641741      0.33285024896497
  C   2.84721708775580     -0.05725014586813      0.20235882220924
  C   3.63285874439229     -1.15251980841721      0.11118450049777
  C   3.25571394214056     -2.54675833674442      0.09034241254273
  C   4.30513772421433     -3.37608504084017      0.01178013639716
  S   5.85693903363454     -2.54252428362471     -0.03890337234783
  C   5.07915407355592     -0.97398585039838      0.04159576656508
  N   5.78146109078570      0.09619909712733      0.03392194696809
  C   5.21006997332833      1.35171224929289      0.08983751035753
  N   5.82818142142154      2.45154894683338      0.06405355282690
  S   3.42413529708510      1.55687427616559      0.22194763734262
  C   4.31719921420570     -4.87032311501570      0.04937113963679
  C   4.47364683278948     -5.41171415014649      1.49191184017637
  C   3.31380242665081     -5.07189479956507      2.31442800048682
  N   2.38292265625794     -4.80147441708557      2.92492313525697
  C   3.11482122906985     -5.54565945222531     -0.59801189541795
  O   2.24005171289231     -4.99442268333320     -1.19218571721713
  H   2.22980835467337     -2.87789760124717      0.12945893189723
  H   6.83059211241267      2.27956292746857     -0.00478810534835
  H   5.18678543033601     -5.24480120844757     -0.50510169442148
  H   5.36933056821502     -4.99057605717655      1.94922699261810
  H   4.58449630526991     -6.49792303430417      1.47838952196497
  H   3.11506989329904     -6.64785021603050     -0.47559131195658
