20
Coordinates from ORCA-job 7406optt
  Br  1.36145984494014     -0.36976733322773      1.48984222486960
  C   3.06654590219562     -0.02508371785298      0.59084781506585
  C   3.77416241630917     -1.21264864479811      0.12526882310905
  C   3.35561591986767     -2.57238060670096      0.23683383904069
  C   4.24883800113461     -3.44038088773733     -0.29469939644206
  S   5.63082647047796     -2.63585191941613     -0.94187686220006
  C   5.00123585835153     -1.10091154779258     -0.50520979966219
  N   5.75775317844893     -0.00889049444404     -0.80042399797723
  C   5.73343365419491      1.19581401097543     -0.69036234710196
  O   5.87659412657209      2.33947205454043     -0.67040838721038
  O   3.43397190722832      1.09723140731886      0.47156437993314
  C   4.14150093917446     -4.93226164438628     -0.42310966356305
  N   5.44176892732290     -5.59360176915402     -0.33150033277039
  C   5.33944633290933     -6.41263579494288      0.61791978387346
  O   4.14793560429968     -6.48953160011663      1.28674220519008
  C   3.31521246586658     -5.56245859404311      0.69383903376074
  O   2.20093274798656     -5.37735530763050      1.04226021972333
  H   2.42428424660869     -2.87939293838162      0.68950529092655
  H   3.67879353685892     -5.19456668788098     -1.38040736155897
  H   6.10768791925187     -7.08279798432881      0.97837453299382
