24
Coordinates from ORCA-job 7409optt
  Br  1.12705711180992      0.15315821911048     -0.92809557776628
  C   2.94752296200078     -0.06682103082555     -0.48251434999357
  C   3.53903158225962     -1.24555763089256     -0.21337676011133
  C   5.00634860683483     -1.22574360606438     -0.12488752565276
  C   5.74874914283265     -2.27026031324171     -0.51837842167791
  S   5.12838565307712     -3.78306790993888     -1.08579447528400
  C   3.49720958329602     -3.73330479291950     -0.43336876925415
  C   2.87778869162914     -2.54677224507892     -0.03443265343907
  C   1.64522176489914     -2.68338020743548      0.61519058425261
  N   0.99069728807568     -3.82554594991588      0.75851416756828
  C   1.56273280196947     -4.92831675849503      0.28122753105666
  C   2.82215883904797     -4.93955490491665     -0.28978127468039
  C   5.66715364622568      0.03364059277274      0.28615816300506
  N   6.78486561496710      0.16222413011427      0.86413456803239
  C   4.93195834293033      1.30406992206270     -0.06721000978728
  N   5.40973721384932      2.46887163406942      0.01519741679752
  N   3.64108740444711      1.12204852259816     -0.53849345514859
  H   6.82983180418102     -2.20572576615848     -0.55378160045775
  H   1.17764520939427     -1.80947442990394      1.05098864120950
  H   1.00365006269131     -5.85068080210671      0.38830391045143
  H   3.27854075717755     -5.86963864009672     -0.60256122725490
  H   7.19724061250883     -0.74107178513422      1.09489723492768
  H   6.36501062194630      2.41210051369896      0.36661034245936
  H   3.15037468194882      1.96580323869788     -0.79354645925251
