21
Coordinates from ORCA-job 7410optt
  Br  1.24069912950007     -0.21212373576604      0.36161418135710
  C   3.10742104419013     -0.07658789707236      0.13155943031012
  C   3.73295244526113      1.14071969790911      0.11865828997359
  C   3.02510563975587      2.39572540011807      0.23048553495310
  C   3.58120020021500      3.60491412985547      0.05466672980712
  S   5.22662326559603      3.92325224889777     -0.32130044085636
  C   5.87012768963404      2.34455724419755     -0.27914879327650
  C   5.16762686748325      1.22143088585173     -0.05033359826377
  S   6.12667283379177     -0.25089645918733      0.15171562371178
  O   6.40573848021918     -0.38435866021731      1.54731522703501
  O   7.20328860209473     -0.20304859218596     -0.78303320548360
  N   5.10487041410069     -1.42732147553010     -0.28319199793986
  C   3.83562011127119     -1.29919762799087     -0.14787758102779
  O   3.04813083944999     -2.37004868178655     -0.34266099987978
  C   3.60246383764895     -3.63957384511241     -0.41938028212430
  N   2.92427867552752     -4.62626046751226     -0.76404601014104
  H   1.96823017670940      2.35613962564472      0.45299326504612
  H   2.98193368576150      4.50238823040920      0.13244862259678
  H   6.94146239215625      2.28668638610366     -0.43767907800635
  H   4.64664155743734     -3.68816304756296     -0.13616198990012
  H   1.96691211219594     -4.36423335906312     -1.00064292789122
