19
Coordinates from ORCA-job 7411optt
  Br  1.87291561313952      1.14377726884220      1.15958899436791
  C   3.43468546383916      0.72090330990433      0.22261801796605
  C   4.30111634951975      1.60386869938993     -0.29455983920019
  C   5.56436003306868      1.09310928819604     -0.81631976297709
  C   6.23730823422483      2.02353494357309     -1.51244884786987
  S   7.81017546003023      2.62922940355544     -1.03019231286065
  C   6.97258020115716      3.60374223590466      0.17461981655057
  C   5.66391059009790      3.69747621187935      0.48759574734004
  C   4.34774462192727      3.07833885904058      0.03670473907440
  O   3.35384784948340      3.75509865123807      0.09765198777517
  C   6.01679977389682     -0.23479458823977     -0.32459003440921
  N   7.20226251201589     -0.66769287818889     -0.23702899888891
  N   4.97723392532567     -1.14383480667820      0.00289164459208
  C   3.80043676018340     -0.70987350328447      0.20392290337867
  H   5.64425164540360      2.83043618875181     -1.93489667197526
  H   7.66206716447790      4.26320862273615      0.69352341333996
  H   5.43910088270066      4.46761879994080      1.21905612964595
  H   7.87594271569576      0.05681372317351     -0.48283505584443
  H   3.01926020381233     -1.42596042973465      0.44769812999482
