24
Coordinates from ORCA-job 7413optt
  Br  1.79879848658188      2.19924446490884     -1.67780812310248
  C   2.78319917462548      0.88394392913459     -0.73635024835962
  C   2.30044331965913     -0.40828077170016     -0.76636360697540
  C   1.11179766913924     -0.93010222824793     -1.47567765892912
  C   0.23466665860105     -1.64066219403696     -0.77199913665034
  S   -0.74174332190907     -2.96900531714765     -1.38354774752128
  C   -0.08055963119137     -4.30590518234583     -0.43831072043720
  C   0.96482147518406     -4.45328952764101      0.39465520626108
  C   1.93762215664128     -3.40166153952976      0.71981482287241
  C   2.56395479426234     -2.75009864642543     -0.24571676849851
  N   3.02810009054024     -1.38868025191665     -0.10516773478130
  C   4.12347561171807     -1.03893066471031      0.57736593940074
  N   4.96645415370792     -1.76569832732938      1.28061376701961
  C   5.85825279266154     -0.80569905873436      1.67439143577057
  N   5.66754249904491      0.44985134398033      1.28829836389003
  C   4.53315225307007      0.36054510943409      0.55793860482731
  N   3.87970668926444      1.28778534635568     -0.09800677940774
  H   1.13284422748900     -0.95904227507957     -2.56047488728155
  H   0.24371213005125     -1.57149260229893      0.30894290621711
  H   -0.74031422806496     -5.15782332653299     -0.56504418575867
  H   1.02212455976141     -5.39721921887538      0.92620107898493
  H   2.00803590254951     -3.04791934622518      1.74462126191291
  H   2.53626814908580     -3.09016110235450     -1.27143940568522
  H   6.70364438752676     -1.07969861268151      2.29106361623175
