23
Coordinates from ORCA-job 7415optt
  Br  2.36371927483454      0.01859754700736     -4.91046038857707
  C   2.25126381091304     -1.19637694355175     -3.49745840160285
  C   3.34714350039814     -1.81766181949631     -2.98596729347520
  C   4.72644706253807     -1.37050392976992     -3.26657672958946
  C   5.43080723566496     -0.67570539371427     -2.36317483717889
  S   4.91897377187975     -0.06584568880617     -0.77392005242780
  C   3.25386918420349      0.37540460976186     -1.10942353232532
  C   2.20767810865868      0.29272495443809     -0.28569195318855
  C   0.81035782215195      0.47777408985195     -0.81500029045940
  N   -0.11733835649320      0.90897747591127     -0.07993094631516
  N   0.75622726571198      0.14620278634534     -2.19765217928201
  C   1.22505600527485     -0.98868607469062     -2.49068610618976
  O   1.07890430041317     -2.04564450647585     -1.60399534610233
  C   2.11919510809433     -2.86476620574611     -1.39696252007858
  N   3.23961715745158     -2.76779035268722     -1.97518256597581
  C   6.85107781494398     -0.31884374840702     -2.69805419867969
  O   7.37520056328351     -0.61328152716223     -3.73341908430402
  H   5.20253671836278     -1.57167362390929     -4.22102858177256
  H   3.10850767187093      0.73748231271100     -2.12020000091824
  H   2.29881612946142      0.01650253580183      0.75835962236258
  H   -0.99908926513734      0.94056514239437     -0.59007822100322
  H   1.90790560238966     -3.62282353692137     -0.65350302150303
  H   7.38812351312970      0.24837189711508     -1.91699337141364
