23
Coordinates from ORCA-job 7418optt
  Br  2.07026479269259     -1.40209456992633      1.90321605218713
  C   3.03204055473522     -0.35777925367915      0.69112849741249
  C   2.90244106258637      0.96119124737335      0.57083254371102
  C   1.95457809685145      1.85868463234436      1.23430465397347
  C   0.63537974050360      1.77419829969059      1.11302783934460
  S   -0.34095750908932      3.23465740800936      1.16427803427479
  C   0.62047147359353      4.36693203612482      0.21924477099464
  C   1.63500302291493      4.21178230537690     -0.62889142190495
  O   2.12883342341599      2.97066431301279     -0.96353093096625
  C   3.47218061323404      2.79145277038155     -1.02649197373455
  N   4.19531966731263      3.56494075703411     -1.69607451214687
  N   3.82240476901280      1.62639601695412     -0.30074762446854
  C   5.08000067310273      1.00615779540786     -0.44777913760036
  N   6.21810913278889      1.53602762664922     -0.44413870679931
  C   4.98021232298521     -0.49593973138714     -0.65847479531516
  O   5.72936058435104     -1.13715607628229     -1.30807796744656
  O   3.90622644156984     -1.09234518710153     -0.05458237772177
  H   2.38447616846382      2.80276162911258      1.55558582112907
  H   0.13748804288306      0.87622668642786      0.76802604063946
  H   0.28646181938699      5.38454719374563      0.37780899580179
  H   2.13290384055019      5.04799999372146     -1.10111056929377
  H   5.17907696117863      3.33157649827181     -1.71346226009192
  H   6.17872430497573      2.53111760873805     -0.22609097197844
