22
Coordinates from ORCA-job 7419optt
  Br  2.50038856719938      0.87959786105215      3.08487201857324
  C   3.52114285722271      0.19357798672892      1.66802480431285
  C   3.39093262737600      0.57137458002334      0.37449123016767
  C   2.64749532971739      1.81976083153429      0.06444582619703
  C   1.34050751901637      2.08144623417851      0.14135719999027
  S   0.04919296506881      0.83388060638605      0.19714003480717
  C   0.56435513883896      0.30423229888187     -1.41931442814606
  C   1.51985063746059     -0.60285304158650     -1.50610476325533
  S   2.66093942701301     -0.66015866801128     -2.84233092461966
  C   4.09111702255619     -0.40653213666008     -1.90850948463547
  C   4.30280468662722     -0.06076711737022     -0.60696640742636
  N   5.54412002912503     -0.53980285680104     -0.16717077907793
  C   5.69520349209762     -0.84060457593176      1.05851801396197
  C   4.62614785626805     -0.70609535832617      2.08159517515057
  O   4.71618652264844     -1.22120350925569      3.16783439292222
  C   0.88251618634292      3.43345571317205      0.01409950349044
  N   0.49442744462547      4.50934103826533     -0.08267924997861
  H   3.30761708929520      2.65750973081115     -0.15064395291056
  H   0.29707745130634      0.94927989656265     -2.24826656979754
  H   1.78874918582032     -1.21807731525444     -0.65562306009454
  H   4.97795976148508     -0.75051843154214     -2.42987130940583
  H   6.64126820288886     -1.24984376685702      1.40210272977446
