21
Coordinates from ORCA-job 7420optt
  Br  1.20755126963887      0.26844313094889     -0.20302606250172
  C   3.06353196464149      0.07761926254779     -0.11204169184826
  C   3.71499874394175     -1.13039251056220     -0.04421382315696
  C   2.98357688182736     -2.38155739645828      0.07790109315354
  C   3.55397029709306     -3.54242813418965      0.40083712444640
  S   5.25961398804861     -3.82292906132445      0.60880981452084
  C   5.91893459111288     -2.37792329202844     -0.18497638774102
  N   7.00139084693100     -2.36004605253194     -0.82554026246528
  C   5.15350931253961     -1.10851000592223     -0.04878678335552
  C   5.79709757727621      0.09457572408593      0.02484080039229
  C   5.00733837708830      1.30274056391069     -0.00572232479555
  O   3.66207326368916      1.25205731669050     -0.12927461324395
  C   5.83796473171461      2.37528338750105      0.07510388964272
  N   7.12951693173825      1.92191135079544      0.19978314992236
  C   7.13608850097295      0.60530390072977      0.16130357609099
  C   8.34168988818719     -0.12785226953596      0.38255704690580
  N   9.30481560003423     -0.71040239456886      0.60575485938565
  H   1.90963365081689     -2.35306087925349     -0.03441356714278
  H   2.95669375749591     -4.43006771457444      0.56013003310298
  H   7.46539721216333     -3.26721687997407     -0.86892054250271
  H   5.60561261304826      3.42645195371397      0.06489467119018
