23
Coordinates from ORCA-job 7422optt
  Br  -1.45424872479920      2.69859635282350     -2.40700157916226
  C   -0.61479327158965      2.77135707244592     -0.64064782877184
  C   0.58508107876049      1.90607488467043     -0.48962867882377
  C   1.46013935944255      2.91113179274200     -0.40436934101801
  C   0.37383740188260      3.97222760127130     -0.47374471829563
  S   0.32238104732260      4.85224247165334      1.10558308255629
  C   -1.00452914385810      6.01478024910382      0.86555837097667
  N   -0.90877350367931      7.22051575856478      1.23923927759792
  C   -2.30176919954098      5.61777263983713      0.28041718801720
  C   -2.95605518594407      4.44901412521928      0.33390991178644
  C   -2.58307667822783      3.13133436968751      0.88460120055144
  C   -1.59942821673635      2.37707912628282      0.39578635311144
  N   -1.42442335941335      1.03802688338409      0.76342759840454
  N   -0.48578082929949      0.15631917905236      0.35352142277691
  N   0.54282410326715      0.54152744003990     -0.25055458648846
  C   -4.29955723575340      4.45027665129914     -0.19758992190067
  N   -5.37289959259034      4.41354791558898     -0.60129372989981
  H   2.51864827771218      2.98305324857449     -0.20163760301700
  H   0.38443101930428      4.67269751536528     -1.30644281996695
  H   0.00911611861466      7.43114201719848      1.63087453744870
  H   -2.82275665709542      6.46073179743705     -0.15813012451449
  H   -3.28636637957908      2.70021106314065      1.58988298368854
  H   -2.17100042819991      0.56833984461765      1.25023900494279
