24
Coordinates from ORCA-job 7426optt
  Br  3.58830053345888     -0.70670856646099      2.01852812263410
  C   3.58275792418176      0.18408226798217      0.36538511273477
  C   2.59633034723214      1.04264419981006     -0.00024121707199
  C   1.46024490096836      1.34629521485336      0.89017612906007
  C   0.20104830194874      1.16636482523328      0.51584571524856
  S   -1.15251405546558      1.92253489242098      1.36459360660668
  C   -1.26906322391657      3.49922828923689      0.44025048534933
  N   -2.34338802850220      3.87923040675637     -0.08235708424971
  C   -0.04528072006659      4.39465323790545      0.43507404267207
  N   -0.09376114259625      5.44684791394682      1.13010960550266
  N   1.10133504503495      3.93164170118907     -0.22612760140459
  C   0.96186742809474      3.21295450297068     -1.26910285430993
  N   1.99478310752797      2.56177667734708     -1.87872121006876
  C   2.74829601022172      1.68828618442230     -1.30708939429888
  C   3.90737949628803      1.22620518733070     -2.06883324933463
  N   4.79171108776018      0.39171672098248     -1.65715406067828
  N   4.63497484299320     -0.10957661959330     -0.42833338298405
  H   1.67783712357162      1.86452604411151      1.81951758650062
  H   -0.03481185506596      0.66286427193577     -0.41665762974358
  H   -3.08329432918134      3.18265567023148      0.01317341239870
  H   0.80471718787224      5.92944283644929      1.07122962116539
  H   -0.00170720462239      3.09876890909654     -1.77910142561298
  H   4.04534540453096      1.62881852214655     -3.06397402905885
  H   5.34489181773136     -0.75825329030457     -0.12819030105673
