19
Coordinates from ORCA-job 7427optt
  Br  3.24039509404069     -0.65658173437249      2.79388917558139
  C   3.59711594010470     -0.00670832630963      1.06183770243052
  C   2.82556691455240      0.92197527154743      0.48405431208704
  C   1.67722302649973      1.57715699583450      1.13405471369635
  C   0.55540184802414      1.77393341665200      0.45474743972456
  S   -0.63890903261591      3.00730459110920      0.82963179827372
  C   -0.10413846847272      4.11122926272369     -0.46025609388144
  N   1.02614131047900      4.19944539966218     -1.00579670897096
  C   2.24229593727858      3.66703219259283     -0.57407618091737
  O   2.85351570073454      4.16245774410117      0.33640447258211
  C   2.80285944238843      2.55372579857095     -1.40583513053841
  C   3.13649563952082      1.36655225752025     -0.88432046735531
  N   3.74958565762419      0.44340877058174     -1.78913783773049
  N   4.50077113087713     -0.45095360003039     -1.44197503415012
  S   4.90784403858855     -0.76902608208490      0.23814067193118
  H   1.83610356057864      2.03398523248748      2.10492602417474
  H   0.42550383276315      1.32626279725029     -0.52477813402190
  H   -0.91229926866775      4.74829437363990     -0.81583403708306
  H   2.95652769570167      2.72750563852376     -2.46367668583254
