21
Coordinates from ORCA-job 7429optt
  Br  1.18222943482455     -0.13955941417948     -0.29743916054698
  C   3.06718022606654     -0.06220005508517     -0.15591231653669
  C   3.72293789204160      1.15305873616787     -0.04257643858476
  C   3.04580678299625      2.42003585076600      0.09945062213173
  C   3.63341800171438      3.52248960227147      0.57853540999858
  S   5.33317056628752      3.68334575142436      0.88445946209168
  C   5.84702962806516      2.33157938049788     -0.14373267699993
  N   6.76702684518518      2.35529902782076     -0.98097857924287
  N   5.09549160526477      1.11326161404235      0.02994638741096
  C   5.78576272867273     -0.08651787597696      0.16857703239634
  N   7.05353109464775     -0.09445243300390      0.43633151202673
  C   7.60306794124576     -1.34737779840752      0.53784137300021
  N   7.06661662363838     -2.50808411173492      0.35939171932728
  C   5.71537047361756     -2.58095657006487      0.02988959907647
  O   5.14623356779598     -3.61273900825291     -0.20901051233308
  C   4.98829031467460     -1.26775400768772      0.00259762094129
  N   3.69611117484796     -1.22962973252064     -0.16561354401946
  H   1.98153875538222      2.42203727109433     -0.07780723740156
  H   3.05614630392287      4.40678970205673      0.81422889078837
  H   7.23062753628531      3.26083219369940     -1.02945716218403
  H   8.65541250282287     -1.33445812292707      0.80827799865974
