21
Coordinates from ORCA-job 7430optt
  Br  1.13061338500237     -0.16118081322679     -0.33235677281415
  C   2.99589991257710     -0.14971780577397     -0.09339087728417
  C   3.70731011328769     -1.30874760203850      0.00729403076476
  C   3.05879420464234     -2.59560486571712     -0.09616689426863
  C   3.66505653655238     -3.78249164780591     -0.06928076313892
  S   5.37391919395202     -4.00357457461009      0.15071374500602
  C   5.94961960040779     -2.35943521966348      0.42337961118366
  N   7.14779687094002     -2.16882258087000      0.77316059117930
  N   5.10204359842408     -1.25363154887254      0.19905906751171
  C   5.71700260705721     -0.00936706360255      0.25352443643537
  C   5.04609944354409      1.13801358579345      0.13769650385074
  C   3.60401383955533      1.18472899506991     -0.03682620079032
  N   2.88992146141212      2.23742137099702     -0.14132743312738
  C   2.88155115212508     -5.04227525511439     -0.23672777779141
  O   1.69578055927845     -5.05918203801386     -0.40212436976267
  H   1.98668098307256     -2.60172644961677     -0.23139776325466
  H   7.66513576148168     -3.03403102303998      0.88888801921283
  H   6.78323875832046     -0.05315209178247      0.39744054445234
  H   5.59529338777717      2.06928815823452      0.17594757536224
  H   3.47315955717078      3.07045046100868     -0.08274566947406
  H   3.47106907341913     -5.97696199135510     -0.20375960325260
