24
Coordinates from ORCA-job 7431optt
  Br  3.39203353854131      0.69981438753827      1.98173264940873
  C   4.74602742815718     -0.54806123424906      1.61072261740289
  C   6.08496552868507     -0.25243225243799      1.73334765769610
  C   6.32962735920946      0.52612799661766      0.44247097264927
  C   6.00053437030136     -0.29080415474382     -0.57844979992787
  S   6.78137289988367     -0.19773595050051     -2.17320223983377
  C   7.94133546166141     -1.56933265102298     -1.87029620039246
  N   8.01848479025104     -2.48315107095370     -2.72501667277382
  N   8.62333332461172     -1.45126991615004     -0.66325621236433
  C   9.03524070016821     -2.51307285165368      0.13843348042437
  N   9.40127088155893     -3.61433734274694     -0.36093409136185
  N   9.07286202998115     -2.16292803791683      1.50756432375881
  C   8.11432862859987     -1.33393829236710      2.07042789330237
  N   6.92918641501548     -1.40528820811359      1.63962328464830
  C   5.16054662407331     -1.54410022182909     -0.35355182447816
  N   5.00069949742242     -2.52560066994926     -1.09514531792542
  O   4.38120911274113     -1.56728274194023      0.84940846942072
  H   6.89164318889889      1.44598568538328      0.32109360768786
  H   8.72588630387831     -3.16958219990364     -2.45319822172799
  H   8.47306487602628     -0.58390538807831     -0.17838310580842
  H   9.57446868991048     -4.31010134673276      0.35787260928816
  H   9.88094972134689     -2.45023749711614      2.03477068544941
  H   8.46939603634570     -0.60634323461229      2.80594116745781
  H   5.51753259273064     -2.44842280652123     -1.97097573200071
