20
Coordinates from ORCA-job 7432optt
  Br  0.92274003724201     -0.09761623905690      0.15843798091674
  C   2.79288673363339      0.06921106552014     -0.02897654299989
  C   3.61897386790074     -1.01135156181235      0.09969197038714
  C   3.06545170671692     -2.31675231373707      0.42421948136170
  C   3.75234992248317     -3.45421913445556      0.52715083084692
  S   5.44742785270051     -3.68774651318459      0.27071765637454
  C   5.99280647025069     -2.06300991105598     -0.11979697187111
  O   7.15494384431494     -1.93208046130655     -0.42406735018398
  C   5.06976131909570     -0.89420284709359     -0.06256824506256
  C   5.69914238410656      0.29929838001582     -0.19635593258891
  S   4.92555070966439      1.81652039456756     -0.31269559581705
  C   3.19215944667746      1.44247442145802     -0.34478233644153
  N   2.35978451283883      2.36411236145022     -0.58371942200366
  C   7.20115754201453      0.49198384246372     -0.23799291865527
  O   7.75360465478818      1.05331583434998     -1.13399690850772
  C   7.90723458138153      0.15457228997884      1.01560133282402
  N   8.42585191689463     -0.03840323580086      2.01814521959254
  H   2.00361488708805     -2.36792200864552      0.60538488997444
  H   3.24087968271293     -4.37250960051799      0.78602740740533
  H   2.79267792749474      3.26232523686267     -0.78942454555171
