21
Coordinates from ORCA-job 7433optt
  Br  1.00578129748572      0.16365937483932      0.05058840979593
  C   2.87543145565566      0.02743389013937      0.06361047463877
  C   3.56308699781082     -1.16545002751998      0.06821031930521
  C   2.86974008270526     -2.43593127527381      0.06783817297206
  C   3.47874244540018     -3.62265918827746      0.07463192958588
  S   5.18510936186285     -3.90615071858989      0.08255425803447
  C   5.89967733233288     -2.27674320767646      0.07748242871010
  O   7.09104700467422     -2.19630462323210      0.07763735491758
  C   4.99795338552783     -1.06722932560320      0.07453692909291
  N   5.65370052873948      0.06091329814270      0.07757596620451
  C   4.97425078642145      1.19999067750613      0.07560251453833
  N   5.43448587977083      2.43093455876167      0.07988210023769
  C   4.33848026361992      3.22875913677638      0.07539905255765
  C   3.16074581701699      2.50174632520177      0.06784509554958
  N   3.55207854192485      1.19904482252396      0.06801941497917
  C   4.41917658578042      4.65004967874585      0.07865092951695
  C   4.45999309709896      5.84679400639836      0.08063538137378
  H   1.78936345512317     -2.41780727017356      0.06329615577205
  H   2.89935266709720     -4.53700628681950      0.07546223744896
  H   2.13161563895401      2.80835130658307      0.06342877163872
  H   4.50918737499727      6.90960484754737      0.08311210312972
