21
Coordinates from ORCA-job 7434optt
  Br  1.83427044018719      0.96380855540374      1.29010015131755
  C   3.44307168161028      0.59101388527523      0.41370387139660
  C   4.24422491266628      1.54305686990512     -0.06774717175595
  C   5.56226104578796      1.29963356600768     -0.65655805340254
  C   5.95749941470176      2.18214945556085     -1.58888025138863
  S   7.57330652422279      2.81807036076841     -1.66865934851300
  C   7.55189532130825      3.54507318646985     -0.03558293070443
  O   8.55565715713083      4.04694449076750      0.37191318525376
  C   6.32369492586265      3.69968020878232      0.93456713519379
  N   5.07439006117245      3.57065201113573      0.93621826627068
  C   4.08478810230487      3.02459378515975      0.10762011089946
  N   3.12567611331776      3.66610207038585     -0.39872565468410
  C   6.43453468700452      0.25240490716598     -0.06515947386623
  O   7.61998447787797      0.28820812783143      0.06826080765581
  S   5.55324341316658     -1.25520799777713      0.36176191568496
  C   3.81037869130387     -0.84438946494518      0.30786691558629
  N   2.93015408575159     -1.74191748971660      0.29679772222000
  H   5.19766134601928      2.74276956636234     -2.12221470638411
  H   6.76619153276803      4.12608618575388      1.83791137925730
  H   3.18621943601893      4.65843432162389     -0.16770228432884
  H   3.31689662981608     -2.68216660192064      0.22150841429160
