22
Coordinates from ORCA-job 7436optt
  Br  2.52737481172165      1.06152235085039      0.38661293736735
  C   4.03747834537249      0.00091155599667      0.70613068502610
  C   5.30353510067106      0.50098198316872      0.98457475787271
  C   5.80182444369995      0.71224714017370     -0.43135695152126
  C   5.76560285899802     -0.45303757473584     -1.10118386768563
  S   6.69497368450070     -0.79943220863689     -2.57383022021870
  C   8.06047165971436     -1.72157324364181     -1.70774767932350
  O   8.39826273204777     -2.80154020837198     -2.08720605245966
  N   8.53334696168794     -1.04711389527274     -0.62829597115167
  C   8.87666499507609     -1.68624101823777      0.58521027876694
  C   8.33083580996794     -1.21885147090313      1.70049804719294
  O   7.48170235809960     -0.13268348408607      1.56631196451337
  C   6.13921545909366     -0.36705586671827      1.81452517055998
  O   5.77118327105290     -1.14910007439884      2.64271378984415
  C   4.99242149167930     -1.62727468537938     -0.52008277114136
  N   5.09853109418050     -2.84306203523896     -0.73358402957776
  O   3.90027566211001     -1.24818171288730      0.32959335953766
  H   6.24096809596051      1.62066286805963     -0.82925106921935
  H   8.13428921940156     -0.13262416706672     -0.48544617452531
  H   9.55494036991443     -2.52386945299622      0.54802925284781
  H   8.50447887159615     -1.60379379478935      2.69356766072452
  H   5.81762270345333     -3.06089100488783     -1.42378311742931
