23
Coordinates from ORCA-job 7437optt
  Br  6.41223217838066      3.56213121169302      0.12579478400230
  C   5.39069020865884      2.95429350872995     -1.30541225871481
  C   4.91588641471774      1.68793075573280     -1.41881817394384
  C   5.69888464229962      0.48660201693104     -1.18220836207972
  C   6.95105616492732      0.43600354190929     -0.69102630110037
  S   8.16798564136150     -0.13128589886045     -1.85617125217420
  C   7.66471592931141      1.33818387165800     -2.92704487200739
  O   6.86980225119582      1.23811833958459     -3.81044057195303
  N   8.19175093832794      2.50783428047470     -2.44265682580422
  C   7.80425698144384      3.87946798862839     -2.64321381465370
  O   8.62513383888772      4.72026235731565     -2.40679286288744
  N   6.53686257188670      4.11853557496796     -3.11390333379929
  C   5.44657365538976      3.69923674082784     -2.59776816854797
  N   4.28464243218471      3.74658787253789     -3.29102848034284
  C   3.20892432114597      2.83750130411093     -2.93263635927392
  C   3.75540663992998      1.53314225527975     -2.36823315643650
  O   3.23756430661681      0.47211598974486     -2.57386297691466
  H   5.43522247713526     -0.25562807602430     -1.93221765847630
  H   7.30975541092881      1.02995195635507      0.13713935613342
  H   9.01370420786785      2.42705040052420     -1.86003503207946
  H   4.41341939057404      3.94766322788365     -4.27266031270717
  H   2.61287092274611      2.61248385696606     -3.81239378736571
  H   2.55165847408150      3.27881692302910     -2.17740957887314
