23
Coordinates from ORCA-job 7438optt
  Br  2.06875921252739     -1.52957490997411      1.64838487106821
  C   2.66728190449260     -0.29278960382840      0.36935541732868
  C   2.28561076623457      0.99463000701086      0.35453380673550
  C   1.37573364014896      1.62890914532208      1.32334933508520
  C   0.11734996962222      1.27461337202882      1.54599934112897
  S   -0.98753499170321      2.42973081141212      2.30011999763654
  C   -1.54820578588655      3.53683186871483      0.99157864945715
  O   -2.35902809236664      4.34275339580082      1.30755057332672
  O   -1.16525546563888      3.44034903394684     -0.30900873972969
  C   0.03175650239037      2.91096276848605     -0.73716959500081
  C   1.17996486137989      3.57343493651958     -0.65848420780383
  N   2.39880366539203      3.04392463506383     -1.06212523028169
  C   2.84302128479747      1.90076172625689     -0.70755477476380
  N   4.00955301035624      1.49900556185715     -1.39740354308022
  C   4.34613839688198      0.28039488118419     -1.36709276052647
  C   3.64854072210255     -0.78827790878833     -0.60855685002812
  N   3.89460611980987     -2.02378437511416     -0.74599348655494
  H   1.71488339617522      2.58616605717994      1.70732493661212
  H   -0.30475909900246      0.35697543814172      1.15438343645626
  H   -0.04579604152891      1.92826795085872     -1.18587104007836
  H   1.20100509938287      4.60315399159679     -0.31831078168550
  H   5.22363033386700     -0.03018957656171     -1.93492055441791
  H   4.61694059056542     -2.17724920711455     -1.45208880088400
