21
Coordinates from ORCA-job 7440optt
  Br  0.34283849205000      2.17664078040208      0.01403990714554
  C   2.11797442539402      1.59663122199377      0.09492077847371
  C   3.05233200173250      1.91400383274286     -0.82254717335259
  C   2.72465706917761      2.80284462056768     -1.94133492918013
  C   3.13709637153963      2.78055966393208     -3.20614667633775
  S   4.20624937767986      1.70257750131982     -4.09000846688226
  C   5.64664682344593      1.43317587811816     -3.11262902077880
  O   6.56491903981036      0.79179429637939     -3.48992816169610
  S   5.69235911534212      2.11437276486561     -1.38330360901839
  O   6.81286322820306      1.52217388559187     -0.74590152149665
  O   5.44676973124113      3.51278591279677     -1.39381158595101
  N   4.33535577200532      1.33328111177031     -0.74780692467543
  C   4.58084749365719      0.14218425527547     -0.05717724697697
  C   3.77946902468166     -0.34314366216657      0.88248289776322
  S   2.48006596590382      0.61493677380193      1.52412214457494
  O   2.99734102354267      1.48982711131657      2.53271598119189
  O   1.35929306737096     -0.22382800001513      1.81660520012241
  H   2.00478575080859      3.57210668032785     -1.69449286063816
  H   2.72941680303369      3.52241663857029     -3.88151966743871
  H   5.48345833685426     -0.37277782863758     -0.35552007151141
  H   3.94226108652537     -1.30356343895333      1.34924100666271
