28
Coordinates from ORCA-job 7458optt
  Br  1.02545404685492     -0.72154461448565      1.08061098251666
  C   2.74496289645616     -0.54052856062262      0.32368569624441
  C   3.65678610637022     -1.50422721364885      0.53157026954961
  C   3.46317625764343     -2.77449548033838      1.32923587671710
  N   4.70185126865612     -3.53218998452193      1.18996541838361
  C   4.82687837883523     -4.65885938118000      0.22118293166528
  C   3.72065423177400     -4.90547458554496     -0.79972480067898
  C   3.95606876252869     -3.84191938894052     -1.87045282744269
  N   5.41648821023186     -3.74974012198017     -1.90507908657724
  C   5.92337464571172     -3.89058804737920     -0.55875831007658
  C   5.71382798226133     -2.72993334316254      0.47001195367497
  C   5.01072386513583     -1.48026398105408      0.02182287873349
  C   5.49547774662584     -0.48735486065359     -0.72958393647311
  S   4.57278787868871      0.89434448453296     -1.19805798053429
  C   2.95945572725792      0.67153398208887     -0.47257577344223
  N   2.04712082207769      1.53267766666449     -0.65145053326151
  H   2.59160720155315     -3.32854434017530      0.97609036060410
  H   3.26473393861928     -2.52271861133104      2.37567074485172
  H   5.13134892298525     -5.57314650585166      0.72756274975198
  H   2.71535255341332     -4.88455136090796     -0.38203732539020
  H   3.87847913047151     -5.89574400420378     -1.22912807996023
  H   3.46885296584011     -2.89998757205037     -1.59110818791714
  H   3.57311159283155     -4.14005295835281     -2.84624656628299
  H   5.75429949492272     -2.92268447396196     -2.38159811097331
  H   6.93210617006538     -4.29913446822861     -0.55279325344902
  H   6.60061521959241     -2.50130467363706      1.06635501438944
  H   6.51515530057211     -0.47272544776592     -1.09563976032677
  H   2.34424868202342      2.31515784669268     -1.23053034429606
