24
Coordinates from ORCA-job 7460optt
  Br  10.83630415412626     -0.89011844012654     -1.70236674756528
  C   9.23177135659672     -1.36298317567793     -2.55016194128677
  C   8.52742657005280     -2.43333276793308     -2.14640400077659
  C   8.87322934343019     -3.37538952836006     -1.01969978215797
  N   7.84465451640399     -4.39140750081965     -1.14533392597540
  C   7.21284205720168     -5.14224931246744     -0.17559172363019
  N   7.40293854769072     -5.31123846301142      1.05766340885615
  C   6.15551820423810     -5.95795987929931      1.53555957015042
  C   5.05976289655816     -5.62356867711496      0.48431199961737
  C   5.90052424304551     -5.56737386406742     -0.78980987043285
  N   5.66321495546297     -4.57834815502018     -1.85660903749010
  C   6.78419386567579     -3.99909129676234     -1.99161923194162
  C   7.26752770509394     -2.82477404275904     -2.75118698808114
  N   6.65247562013541     -2.25815234928636     -3.71914981690723
  S   7.27039720982614     -0.93181089731344     -4.45262507595722
  C   8.80577666597672     -0.49069502496210     -3.65501978167158
  O   9.39751643482778      0.47628269646208     -4.05026615158545
  H   8.81896448955872     -2.86988307181032     -0.04930363647258
  H   9.87604583936577     -3.78849808524387     -1.13298886005655
  H   5.91660825761722     -5.58752462665087      2.53057455515346
  H   6.31115031930602     -7.03775917095536      1.61198774570266
  H   4.64056116239035     -4.63666441188135      0.68655698247120
  H   4.25350482668795     -6.35288935491759      0.45525010555433
  H   5.98209075873102     -6.56057060002139     -1.24676779551705
