27
Coordinates from ORCA-job 7462optt
  Br  1.10598010711919      0.59980165043581      0.02589014716036
  C   2.98931120096501      0.41464700478560     -0.08547943239870
  C   3.57389993632491     -0.79797115542774     -0.19191980847484
  C   2.79013014432713     -2.08453597667816     -0.10768587079958
  N   3.13962108024863     -2.67857820579633      1.17905343641440
  C   3.06544586701515     -4.11370351699821      1.33525757469130
  C   4.38275609664580     -3.42950437842135      1.22427803621941
  C   5.17415692347489     -3.61133915837880     -0.04771133634704
  C   5.65123197017073     -2.28867218230532     -0.72662149786981
  C   5.50265030711273     -2.40470555210293     -2.18196565033944
  C   5.35368210960514     -2.50886795719423     -3.36621097272917
  C   5.02579764855024     -0.96666064331754     -0.27020603823002
  C   5.86860402961661      0.04700181013040     -0.03163131195644
  S   5.42122688423601      1.67628370970880      0.28302299248170
  C   3.68331648525867      1.71279463346101     -0.05213812649581
  N   3.06932928108577      2.81410901642390     -0.16759327251306
  H   3.03292159822461     -2.71872957063152     -0.96933620138817
  H   1.72169012184686     -1.90160996236119     -0.12181249612022
  H   2.75946591521965     -4.70610340330273      0.47788295235736
  H   2.69354649763017     -4.45732547281327      2.29156866231572
  H   4.95950119025378     -3.25690110045298      2.12589304889279
  H   4.58568974802141     -4.17552935091019     -0.76809914804117
  H   6.05239081921895     -4.22103735727026      0.16501605156932
  H   6.71924445929551     -2.18487992790316     -0.52610789544163
  H   5.22890614565016     -2.59468470949044     -4.41919813559943
  H   6.94207209696889     -0.09516007433564     -0.06000419210979
  H   3.69443133591329      3.61686183114654     -0.12714151524807
