28
Coordinates from ORCA-job 7468optt
  Br  3.56522458540130     -1.33908209102407     -2.50392375834162
  C   3.76868580702427     -0.36893165753873     -0.89364452651560
  C   3.33186201658980      0.90341484544332     -0.73083965999401
  C   2.43128482326771      1.60621387629177     -1.75906879082867
  N   1.04382814658916      1.93787523837277     -1.37530580143274
  C   0.17261464989470      0.91217018052997     -0.69581218870159
  C   0.75611045421934      1.43319524707786      0.64527234698513
  C   0.99870716712423      2.73444583104074     -0.12744369298041
  N   0.41847899562364      1.42498082986509      2.05545133346068
  C   1.45935247947929      2.23298239306058      2.72913852940755
  C   2.90551007274076      1.65082721026429      2.83606923077655
  C   3.50120251382862      1.02380979185924      1.58446772173543
  S   3.93409763276508     -0.64526849011327      1.82263353727658
  C   4.40910153995103     -1.15583619138036      0.16665523017162
  O   5.05924641718498     -2.15085431160790      0.03406210264816
  N   3.50479655574759      1.62204231883886      0.45269679680606
  H   2.39655192073561      1.00832266212550     -2.66402090822171
  H   2.89961746848345      2.56176763977461     -2.00457762701858
  H   0.37018410917630     -0.12919827509507     -0.95085946630582
  H   -0.86767138792119      1.16466590615718     -0.90431614189581
  H   1.64730614663944      0.85240604233493      0.63546613691683
  H   1.88223430520735      3.33488019901978      0.06707160721343
  H   0.10167537602848      3.36404195302942     -0.13051619012524
  H   -0.48147681896308      1.85314827887462      2.24604513368745
  H   1.13739113032091      2.39290402044736      3.75845060684877
  H   1.54474729665615      3.22128101687976      2.26441379637503
  H   2.93266960621034      0.90277012136025      3.62965229165591
  H   3.54366698999467      2.47902541411149      3.15478235039662
