26
Coordinates from ORCA-job 7469optt
  Br  2.50143213206833     -0.46329456733448     -3.45493642686580
  C   3.00701252049255     -0.19883415556268     -1.65642337277715
  C   2.51850500806863      0.83867517150788     -0.94869985968636
  C   1.39788622403715      1.77203061462574     -1.38695251381402
  N   0.65762335440115      2.33240136881644     -0.27936063428466
  C   0.27899339238813      1.48478172052819      0.87073014367283
  C   0.81833034013577      2.56841202424003      1.84435677701456
  C   1.28159246302903      3.35192364210199      0.58732060061498
  N   1.77921544950585      2.36596631862006      2.89531039751999
  C   2.76002654157404      1.62808263644356      3.13889993284305
  N   3.42673796880945      0.56459316967984      2.47244901104629
  C   3.39113537183467      0.27289614222961      1.13640018509198
  S   3.93695378605039     -1.33217342324350      0.68245526276376
  C   3.95816835311470     -1.17049881726772     -1.11384246192327
  N   4.65367555585940     -1.94623152520899     -1.82361296010870
  N   2.93095101865130      1.13211147156323      0.33036125931548
  H   0.72379776579559      1.21704975128099     -2.04140063429855
  H   1.80646705323062      2.59316481949817     -1.98293780119463
  H   0.76729902457213      0.51234991350198      0.92964495757873
  H   -0.80003180261747      1.33591365270338      0.94047886576430
  H   -0.01549075444071      3.07869984399984      2.32297566261331
  H   2.36325071567678      3.42677856820057      0.50567699985750
  H   0.82729707578383      4.33786422362246      0.47491285029752
  H   3.24958129852099      1.77101910024459      4.10435207438138
  H   4.06576176712595      0.04045426588449      3.04983631974154
  H   5.24082837633171     -2.57413593067569     -1.27899463516405
