29
Coordinates from ORCA-job 7486optt
  Br  1.15347484289659      0.25354776888432     -0.82445962902455
  C   2.94272323656327      0.08100335493545     -0.26673851230331
  C   3.52231220929093     -1.10754895743910     -0.01981659960410
  C   2.72070884260360     -2.40033363182459     -0.12344011529608
  N   3.32028356330572     -3.58983725985484      0.44292082773070
  C   4.33382181587070     -4.20745370484329     -0.39421183547921
  C   5.55834019419347     -3.29702001387285     -0.60279756373684
  C   5.70798360115975     -2.31838172406356      0.57775902388950
  C   5.28789357684085     -3.03781333877029      1.88134879895948
  C   3.78532289039970     -3.42761421501278      1.81221035475729
  C   5.59014001467379     -2.25216924559264      3.07072425067930
  C   5.82494075182340     -1.58800763510291      4.03999999878926
  C   4.92078178964810     -1.04971343321127      0.35441762665332
  C   5.54213414663678      0.14409359031023      0.47679062533570
  C   4.86965456533744      1.39836596857141      0.23543431694505
  O   5.31039477602517      2.50331156385574      0.32589369044937
  O   3.53549643663467      1.26624404506698     -0.17050862356726
  H   2.48797194077299     -2.60582618271646     -1.17211988998619
  H   1.76258354738949     -2.23510031408560      0.37399062485863
  H   3.88676440755850     -4.48264988597507     -1.34998484601843
  H   4.63313191938821     -5.13751437506307      0.09509790673882
  H   5.46504579042054     -2.72932586487997     -1.53043165070785
  H   6.46448868563397     -3.89945684648492     -0.68954411709771
  H   6.75374636291895     -2.03022193110474      0.67929566940826
  H   5.88599955263581     -3.95380581697713      1.92595631963947
  H   3.18608191559786     -2.65738887271547      2.29870649732564
  H   3.63650659769212     -4.35776170872129      2.36516019652847
  H   6.03713016982303     -1.00102818339906      4.90151614684476
  H   6.58214185626450      0.21740685008684      0.76083050728848
