30
Coordinates from ORCA-job 7487optt
  Br  0.97418416649538      0.20698595726494     -0.54540504057080
  C   2.77763484658853     -0.14538271621211     -0.12521961281130
  C   3.26007552956766     -1.40957787357460     -0.02343255885447
  C   2.37476006589015     -2.63346427864334     -0.19320485962875
  N   3.04896037745446     -3.91489209102857     -0.08863277535013
  C   3.90751572696153     -4.20409440974426     -1.24943188526328
  C   5.32253187622799     -3.62526426759220     -0.93680788792521
  C   5.86711080439002     -2.72452843533156     -2.04954073592800
  C   5.95104148499970     -3.45312168697979     -3.31358425933168
  C   6.00321367105547     -4.07952834727173     -4.33308523703813
  C   5.09783692445203     -2.95012539366547      0.43202723439382
  C   3.99923153496646     -3.83317633933426      1.01825789440005
  N   4.57892528967837     -1.58310358149861      0.28743436638339
  C   5.48509064353807     -0.48426461816748      0.35805692754453
  N   6.75255813501759     -0.58954117589439      0.39334066323756
  N   4.91327459992369      0.77906116464991      0.41322938370750
  C   3.66103006847422      0.93071274797650      0.16872827899985
  H   1.86575317681877     -2.56018577974284     -1.15525679536961
  H   1.59444942057615     -2.57279921747980      0.57087035880698
  H   3.47996735276931     -3.77703333691595     -2.15688386003450
  H   3.96249879368629     -5.28336717768800     -1.38877803863029
  H   6.02539675365556     -4.44790570813318     -0.79052185495988
  H   6.85423348721811     -2.33434118097107     -1.79508816431286
  H   5.21458063674817     -1.85672521004920     -2.18226915345007
  H   6.05688847299632     -4.62602323954378     -5.24428751433744
  H   5.98481624734939     -2.90705051325690      1.05823937590061
  H   3.53781563737033     -3.42148820268118      1.91562619654404
  H   4.39821758917358     -4.82386733280559      1.24231902137972
  H   7.08131854061502     -1.54318104012950      0.31105042589806
  H   3.26108814534162      1.94127328444402      0.20525010660029
