24
Coordinates from ORCA-job 7489optt
  Br  1.39351244738057      1.40610838108194      0.39857224941198
  C   3.17824997677921      0.89311344768368      0.04512349194129
  C   4.14673547695052      1.82564288672677     -0.20641550044464
  C   4.31005937707835      3.36420312329268     -0.18637097720815
  N   5.79595652971971      3.52014888508904     -0.32964322955443
  C   6.86715660749909      4.34068931552524     -0.06603532966331
  C   8.03915463545848      3.58237022475014     -0.06418129991735
  C   9.36509844019779      4.13763001548663      0.16873000094076
  O   10.37540440459303      3.47875430927661      0.18620710679035
  C   7.67313714216830      2.19311735635550     -0.29237073452371
  C   6.32991857200458      2.28937505245165     -0.45600131312786
  C   5.41398788882002      1.27993085430103     -0.39221071942907
  C   5.88305477946775     -0.00779053261976     -0.23579901406811
  C   4.84347169459134     -0.94241395977831     -0.01402246258211
  C   3.54164660097596     -0.48272474081223      0.10231969920712
  N   7.24890338564514     -0.21080226211439     -0.19778358245007
  C   8.08525492840093      0.80720194277847     -0.20826075775592
  H   3.97097777878492      3.78935720706328      0.75790422325354
  H   3.78790445748629      3.85693491245859     -1.00596577735201
  H   6.76166731736738      5.40360109616806      0.08317700854624
  H   9.39784793711302      5.23009364496861      0.34307583145010
  H   5.05577378145807     -1.99693256874938      0.10432736579121
  H   2.75133691650576     -1.19685016810425      0.29170484507790
  H   9.13678892355368      0.55924157672035     -0.11908112433374
