25
Coordinates from ORCA-job 7495optt
  Br  1.66151496116505     -1.14309070196534     -0.25976244707754
  C   3.18621254724607     -0.50318443077505     -1.20431305632121
  C   4.18649842803879      0.20700659251041     -0.53616395317660
  C   4.08452425644122      0.45486955991900      0.96148592204129
  N   4.70376109722573      1.63930274105972      1.54489162157764
  C   6.16644438185779      1.65249083096890      1.45870440306668
  C   6.49005310461441      2.19013972030054      0.07188095412260
  N   6.42765975193498      1.18029058717231     -0.96527468527962
  C   5.27750975938682      0.53457365607550     -1.37016337711490
  N   5.30995988792345      0.19482559363552     -2.66498753097660
  C   4.27855921335459     -0.45960710688840     -3.15092808004053
  N   3.19727926562549     -0.83133209770939     -2.47602651649463
  C   5.36356348792541      3.22357898276888     -0.13834633440603
  O   5.30871333356727      4.07300695999091     -0.96786391331556
  C   4.30279152896364      2.91607158742309      0.95260513133856
  C   2.93932323508094      2.95458651128172      0.44215037182743
  N   1.87042759505254      2.97791923286813      0.03299416390659
  H   4.50354785019539     -0.40419855568510      1.49192364667859
  H   3.02923100224220      0.48906541174488      1.22031210610666
  H   6.56848974010814      0.65642066330386      1.63031181472913
  H   6.55830282474287      2.33049259053968      2.22125751048238
  H   7.46033586350852      2.67651552001347      0.00226606172055
  H   6.99997580836561      1.38114770109805     -1.77418281413385
  H   4.31064074176981     -0.72157017797488     -4.20228732736114
  H   4.40668033366318      3.70567862832355      1.70751632810008
