28
Coordinates from ORCA-job 7496optt
  Br  11.08887305152226     -2.02380064086195     -2.84633397995516
  C   9.23669880488698     -2.14338990092647     -3.17417708979018
  C   8.39800221781432     -2.70968530388474     -2.24257036590390
  C   8.72278373771905     -3.30989554638119     -0.89548003656916
  N   7.39774254926392     -3.52352598152672     -0.34172321812032
  C   6.97742811614777     -4.60098707006644      0.54078387009843
  C   5.45812454386648     -4.60360103138192      0.24166795223285
  N   5.31956181047473     -4.04924812041087     -1.11872911387508
  C   6.42689894553570     -3.47012141545957     -1.33956651349778
  C   7.02884149167232     -2.80454229688798     -2.49691212648761
  C   6.48781449360729     -2.34669705523732     -3.68019492181993
  C   7.33171330655715     -1.76681025432447     -4.61918748702399
  C   8.70155566823230     -1.65703289232575     -4.37411386003440
  O   9.57735771938666     -1.10057996833423     -5.23973413726036
  C   9.08466643676015     -0.47631554628533     -6.39962089659319
  C   10.25745302306746      0.19313871105225     -7.08158667539699
  O   10.13098061566233      0.83089344472726     -8.08457726649902
  H   9.33297834085911     -2.64499242888396     -0.28166859672237
  H   9.27299152545581     -4.25330037980023     -1.01950950931624
  H   7.20719796506100     -4.39894570851461      1.58544881402622
  H   7.44859048328515     -5.54826969159720      0.24552802994413
  H   4.92839932393826     -3.95317147034064      0.94405679174768
  H   5.01519852218133     -5.59580595537048      0.30228956599128
  H   5.42668370129667     -2.43650043778588     -3.87003376505676
  H   6.92044292594074     -1.40038308685029     -5.54852524459485
  H   8.33565447960486      0.28541514508130     -6.15980165086799
  H   8.63838369790124     -1.19898844308479     -7.09097935420634
  H   11.23498250229880      0.05214332566227     -6.58474921444893
