25
Coordinates from ORCA-job 7498optt
  Br  1.18958483590123     -0.13767192268119      0.22074547898559
  C   3.08684507139648     -0.05903569239984      0.11893283302922
  C   3.72802309023210      1.16343923551521      0.00008649755060
  C   2.96414760703408      2.46231200247155     -0.07492518607852
  N   3.84705833772690      3.55196325707054      0.29153459014551
  C   3.40710680282819      4.92685024667220      0.17296321251541
  C   4.73582819334649      5.67283789235605      0.39667331418801
  N   5.68231803300233      4.72975635881770     -0.17194668413240
  C   5.16898534943284      3.45727990561374     -0.06450755415955
  N   5.84039180767782      2.38820190443591     -0.25830327038944
  C   5.13274149216645      1.19869554886636     -0.10905989760235
  C   5.82790881240687     -0.01445357867946     -0.07717861871195
  Br  7.70979735893230     -0.01980615558926     -0.22171188016974
  C   5.16648098185171     -1.22288020113959      0.05347908340239
  C   3.78613256659217     -1.25493266142752      0.14982164247100
  C   4.77174236759087      6.98465115200381     -0.25729540961889
  N   4.78714182835232      8.02058778311239     -0.74383784747913
  H   2.11649514185934      2.44796130097197      0.60988788660038
  H   2.56081175511321      2.61082382364761     -1.08919474743523
  H   2.65683265749713      5.18340351489378      0.91841920287819
  H   3.01349440988674      5.13682861756422     -0.82882427275174
  H   4.89927975502880      5.82658196496860      1.46862725758596
  H   6.67495722027159      4.84562879002423     -0.03659568813091
  H   5.73486980572739     -2.14230622048582      0.07537458699986
  H   3.26002471814459     -2.19371686660323      0.24383547030772
