27
Coordinates from ORCA-job 7500optt
  Br  0.99815268511449      0.08796432812304     -0.11833831132226
  C   2.88621777455279      0.00074749746557     -0.30802093620871
  C   3.64106010510937      1.11868526795788     -0.28284376810677
  C   2.93346866219356      2.47445481844451     -0.13651563857194
  N   3.73837100266233      3.67683038949688     -0.13435544482501
  C   4.42887619888833      3.91281068367862     -1.39637443185723
  C   5.70012804707041      3.03182016008682     -1.55618369474998
  N   5.92233752936986      2.16060747061990     -0.39795094054893
  C   5.81800411618056      2.82582142954841      0.88758701830514
  C   5.95205765088481      4.31567510891745      0.96221518027986
  C   4.59467627602869      3.69373328881444      1.02908519200101
  C   5.08824256015726      0.99225966117409     -0.42992984117089
  C   5.74977361198037     -0.17235596371186     -0.61230154758610
  C   5.17985190582896     -1.49749718752519     -0.70611276482611
  O   5.79793823910754     -2.51356912202311     -0.89543108268929
  S   3.40288220196775     -1.63053491255732     -0.51172898015370
  H   2.36169038034298      2.45320773507796      0.79464079436999
  H   2.19929021554550      2.55923037913034     -0.94079241055005
  H   4.68703496448810      4.97076588552859     -1.45797921609144
  H   3.71574796331854      3.71558676505003     -2.19701172323700
  H   6.58977528962412      3.64869820600779     -1.68704573011547
  H   5.63104122169850      2.38898637997301     -2.43313510669071
  H   6.19432089574209      2.23273917388878      1.71035351914711
  H   6.25111287255747      4.87990356140825      0.09256255882473
  H   6.34125187800086      4.70603724121329      1.89121294843218
  H   4.05240642892390      3.74371514716466      1.96483638984891
  H   6.82728932266079     -0.13432339295285     -0.70744203190733
