25
Coordinates from ORCA-job 7504optt
  Br  1.14508911596673     -0.10682349907769      0.00532532273112
  C   3.01798406078606     -0.18998872598349      0.08244571122094
  C   3.67803926456064     -1.35965562986234      0.04199952604416
  C   3.16592467957307     -2.77370025007452     -0.05781522659604
  N   4.41401275954605     -3.50598692337432     -0.07672531190859
  C   4.81540439328738     -4.80707262943325     -0.21964613826305
  C   6.18909757317169     -4.79336457734908     -0.21168268475363
  N   7.01687208850373     -5.92292218937789     -0.29339304586183
  C   6.86871845469580     -7.03968942558582      0.47426935071925
  O   7.53121921708954     -8.03797215244853      0.35558149883810
  C   6.64530000767245     -3.44404821766434     -0.07964778519630
  C   5.50218232522605     -2.69437563765499     -0.00920256646771
  N   5.04884795744730     -1.37162472717114      0.08295180088016
  C   5.83327068395077     -0.19718048612718      0.20721760065771
  N   7.09548818922231     -0.18522056478621      0.30374417929962
  N   5.10881261298793      0.99228295880285      0.21375533342476
  C   3.82683292892468      0.99395462264584      0.15969231769374
  H   2.58228114913268     -2.91772559879566     -0.96957526391847
  H   2.54229293184481     -3.02977060503011      0.80159950601616
  H   4.12060539855227     -5.62210000499503     -0.32366317313088
  H   7.76488512919609     -5.94376770165946     -0.97197111335383
  H   6.07134057601119     -6.92452369085753      1.22657623767057
  H   7.67214675544725     -3.12802899954558     -0.04289247509085
  H   7.49466606594040     -1.11606771745124      0.30409725769451
  H   3.32468568126303      1.95837237285677      0.17195914165037
