23
Coordinates from ORCA-job 7509optt
  Br  1.11829783471852     -0.07859386697349     -0.12963896170959
  C   2.99943449119799     -0.07266694815788      0.02673338708064
  C   3.70256330041288     -1.22538156232995     -0.10125468693417
  C   2.95655074908291     -2.51980139592745     -0.34379562963010
  N   3.78996778796562     -3.67067356504537     -0.08497607935810
  C   5.14362445751983     -3.66392762456177     -0.11829096596436
  N   5.78688363714274     -2.46609393618550     -0.36382362728370
  C   5.15157107567623     -1.25403337739289     -0.06572647706907
  C   5.89030270785775     -0.15499290523695      0.19008992806937
  S   5.28657361877632      1.42673436971318      0.43614974415639
  C   3.53435135134023      1.27600008230687      0.26132948756737
  O   2.86715130742396      2.27326394411887      0.35669707471904
  C   5.55198885239867     -4.95630057620094      0.09933454125197
  N   4.45581955487765     -5.75327120405899      0.26259223406948
  C   3.40951621019920     -4.97479594495571      0.15037054015607
  C   2.04197565560602     -5.33514916349643      0.25698908846325
  C   0.87552842583454     -5.59981646387820      0.34207652621340
  H   2.59430116603038     -2.53573696075596     -1.37746247701255
  H   2.08072284790354     -2.57454577847419      0.30104076651036
  H   6.78803994105304     -2.47862715207589     -0.25753980927014
  H   6.97091862689269     -0.21484203356967      0.22895906624441
  H   6.55637724608107     -5.34053816137838      0.15074897297193
  H   -0.15446084599182     -5.85520977548326      0.41839735675812
