21
Coordinates from ORCA-job 7510optt
  Br  1.24142011060748     -1.11164021966996     -0.00887426742211
  C   3.05960077342455     -0.69778553829460      0.03544950633720
  C   3.99508314117227     -1.65452922395270      0.01351711319605
  C   3.89635988784305     -3.16034671710642     -0.04258294375855
  N   5.30085165398045     -3.51240045353652     -0.02240093623278
  C   6.12990113624670     -2.43283640788517      0.02894397164265
  N   7.39820459148927     -2.67450610197126      0.04550048765992
  C   7.40777166498434     -4.05161102911880      0.00116284041363
  C   6.13918562711653     -4.60747479475079     -0.04126565236119
  C   6.11775781997415     -6.02231374001367     -0.08594422640416
  C   7.39706373376716     -6.49360267160447     -0.07709912202128
  S   8.61416016009028     -5.26984136323581     -0.01539436157181
  N   5.31826928609699     -1.28821959776422      0.05101224244664
  N   5.76488937222771     -0.03080018332271      0.11132115480998
  N   4.92860108874222      0.89993407298813      0.13243548348353
  C   3.50264215209014      0.69193586701469      0.09516526904734
  O   2.76982507069640      1.64155213572326      0.11588690898279
  H   3.39398035778355     -3.48769233129781     -0.95508391852368
  H   3.35228369695815     -3.55018351058625      0.81990025398308
  H   5.24242993063086     -6.65209352318948     -0.11920825763289
  H   7.70371874407771     -7.52654466842542     -0.10144154607436
