26
Coordinates from ORCA-job 7512optt
  Br  6.78784622499153     10.35798225916949      0.43027473305306
  C   7.73668479383950      8.74593579183008      0.16116220036168
  C   7.10871006299796      7.51785297459428      0.24391349324109
  C   5.67088049743236      7.20122237307696      0.56480832314838
  N   5.55375256680194      5.77448192141405      0.24410452396333
  C   5.03654338698988      5.45600805519982     -1.01828490219661
  N   5.63243250785700      4.57952955324948     -1.70685990520570
  C   6.79227972817458      4.14616569757825     -0.92441208946215
  C   6.89833711226663      5.15182415395524      0.24110542905401
  C   7.82564406155603      6.33237399800574      0.05145023697403
  C   9.17922883829091      6.34409613535543     -0.23217065058784
  C   9.78041403872078      7.59183122136434     -0.32006689749587
  C   9.08834726741515      8.77172812109305     -0.12973073897733
  C   10.04062768768182      9.91424399552349     -0.29931151127293
  O   11.29200924023986      9.29808951721808     -0.59222466585953
  C   11.19308747753186      7.93930524373216     -0.61527862028161
  O   12.11966347841119      7.22558860283531     -0.83702578377260
  H   4.96589014489069      7.79438750407768     -0.01945462010058
  H   5.46353801755890      7.38522526137336      1.62212616767681
  H   4.12860532917346      5.95534162817980     -1.34112791395737
  H   7.68726697814613      4.12188468151928     -1.54720185066876
  H   6.61333329126723      3.13588567904344     -0.55194013814331
  H   7.10637000567278      4.65600147000039      1.19066750547550
  H   9.75478082312956      5.43902938084293     -0.38239381563679
  H   10.13936010104802     10.51330910914192      0.60779677125540
  H   9.76336633791415     10.56967567062586     -1.12692528058427
