24
Coordinates from ORCA-job 7513optt
  Br  1.01271493955058     -0.12838204823397     -0.35154578475665
  C   2.87037899780704     -0.20447072924099     -0.09893063986900
  C   3.56128996054932     -1.35590621193935     -0.24671978465048
  C   2.93727547772758     -2.66929475149124     -0.65661676048902
  N   3.65944748919428     -3.77560743993007     -0.06815670143832
  C   3.21632063725628     -4.95266942939703      0.44147181551440
  N   4.20256640215582     -5.67688878896459      0.90359984113457
  C   5.33841482000710     -4.94448773180032      0.69736937594151
  C   5.01635976520516     -3.76234693917155      0.09466163856734
  C   5.73416729278299     -2.53956978085582     -0.36197604141454
  C   6.00024309077009     -2.57886244218565     -1.82014380090125
  N   6.16349429732905     -2.60332232300549     -2.95335112485841
  N   4.92445676262303     -1.36168427872600     -0.04738355670426
  N   5.63170980635722     -0.25867959835859      0.22955701362416
  C   5.00055610669712      0.84631697154918      0.38266974245735
  C   3.55064355172754      1.03245221935719      0.25958028374327
  N   2.92834279391881      2.13065916330884      0.43258242224963
  H   2.95571803682092     -2.74444622151029     -1.74917249332515
  H   1.90105005090128     -2.69771597289998     -0.33188442501610
  H   2.17013871870293     -5.21580371561249      0.45173031970349
  H   6.31051380667020     -5.30203863189708      0.99335271625297
  H   6.68157542361456     -2.42108276789924      0.16021610649389
  H   5.61545569177288      1.70711784540403      0.62194987355194
  H   3.57216607985814      2.88071360350053      0.67913996418868
