25
Coordinates from ORCA-job 7514optt
  Br  0.92834031356260      0.08417462736271     -0.13404125444058
  C   2.79189934177875     -0.03829388682074     -0.01215037127991
  C   3.41132582915826     -1.23058601962025      0.03937664450618
  C   2.66958565347610     -2.54973857376532      0.07840986788202
  N   3.52087886736374     -3.71150392855920      0.00511593291520
  C   3.63378157342626     -4.55222700161751     -1.09105802449110
  N   4.67029849722950     -5.27795478863335     -1.15364623740618
  C   5.45880242789228     -4.98143011722019      0.04353288488386
  C   4.85367844980819     -3.66206098788166      0.59731548944857
  C   5.58568979127666     -2.45027512819535      0.02390794180047
  N   4.78315689355155     -1.24282218370864      0.16303774779176
  N   5.51830018748632     -0.11605394051194      0.23319836025729
  N   4.98180249618155      1.00468501987448      0.19999079878221
  C   3.56977765147230      1.18513423188602      0.05672138275822
  N   3.06529028542801      2.34390225896089      0.00221246131211
  C   4.79147959067384     -3.60197038199122      2.06208473006652
  N   4.76069063080900     -3.54437707043818      3.20551350979442
  H   1.95087281895908     -2.58027682667879     -0.74053208093378
  H   2.08948149448420     -2.56446175547945      1.00672008532535
  H   2.82712496231019     -4.57615047800491     -1.81546702015092
  H   6.51721587914890     -4.86933653817940     -0.19051809889416
  H   5.34730895346480     -5.79207803650468      0.76599487167782
  H   5.77701390468151     -2.65430222982611     -1.03388013203860
  H   6.53161942751177     -2.26774859228982      0.52921029592154
  H   3.80558407886460      3.04075232784265      0.07595021451169
