24
Coordinates from ORCA-job 7516optt
  Br  1.06435045845996     -0.18836244708391     -0.21764569240459
  C   2.91773572987359      0.12707792058753     -0.21070762718937
  C   3.50482292433119      1.20291148206437     -0.75512598121625
  C   2.75356674313912      2.33414956312059     -1.39418068997955
  N   2.97808565923082      3.53066094459360     -0.60814782166210
  C   2.18059970941477      4.15403590008933      0.30127596486690
  N   2.83818109352162      5.05006289037965      0.98650163530721
  C   4.13468099275353      4.99944733342756      0.54047699782320
  C   4.22813843566280      4.05312875733904     -0.43372390824773
  O   5.24724552450738      3.66648959772800     -1.25224785185258
  C   5.77125904249558      2.39646573188110     -1.19074228721129
  N   6.91396437710949      2.16120927260475     -1.65169732414321
  C   4.95449610687756      1.28226364486007     -0.60752168373818
  C   5.62016355602961      0.30341687212915      0.02548853669308
  C   4.93793531940249     -0.85736353472701      0.57149727651407
  N   5.41030259957316     -1.86093451015243      1.16264397700367
  O   3.55703829593064     -0.85971426439492      0.41410361724287
  H   1.68707341875844      2.13670127106114     -1.43796072214748
  H   3.11220527549546      2.51344662213113     -2.41002399926550
  H   1.13622766844308      3.90445952605574      0.40768265990802
  H   4.90657591892362      5.64349527327664      0.92497092055961
  H   7.35378799517469      3.01880285069452     -1.98487158191488
  H   6.69537676954208      0.34720782646004      0.12380184075205
  H   6.42018638534926     -1.78805852412574      1.24115374430206
