27
Coordinates from ORCA-job 7517optt
  Br  1.23550428127977      0.19600849790570     -0.50056801054659
  C   3.07761245744017     -0.01256600653744     -0.15844900571218
  C   3.68778191840717     -1.21981446433551     -0.20719138558017
  C   2.90742518470068     -2.48577471407678     -0.49486826377006
  N   3.73277810381296     -3.66678070683559     -0.44869204528791
  C   3.98393360852263     -4.49888177816967     -1.51026611312583
  N   4.96109170952356     -5.30693005767335     -1.40451546657409
  C   5.51162740967182     -5.08067081338102     -0.04830728975311
  C   5.12343794115575     -6.16879664646296      0.85241635283915
  C   4.80257908146484     -7.03979432622668      1.60807731538044
  C   4.91974788106931     -3.71993165847105      0.39873632045981
  C   5.82688791044722     -2.55036884186054      0.03321647876866
  C   5.09496905903551     -1.23499009147103      0.09437137077506
  C   5.75488394011003     -0.09426026709668      0.41949915513556
  C   5.10499220219379      1.19505580059777      0.45933555399424
  O   5.60871494572326      2.26624507924724      0.72731522364008
  N   3.74013831744528      1.12882878715116      0.14266684878211
  H   2.43958737191302     -2.42768840387262     -1.48062404181642
  H   2.09326294172749     -2.56992867160299      0.23254850296278
  H   3.34040582812739     -4.45584681682101     -2.38306300048599
  H   6.60147460050475     -5.03492167851383     -0.09626628438852
  H   4.51937569914571     -7.82279052669575      2.27004956652780
  H   4.65520963542259     -3.70913754790398      1.45629682997642
  H   6.17718663549969     -2.71303024102918     -0.99237211681814
  H   6.70588045595231     -2.51965632806193      0.67829346457674
  H   6.80952374106623     -0.10317954398075      0.65904324991877
  H   3.24898713863703      2.01260196617854      0.15631679012140
