23
Coordinates from ORCA-job 7520optt
  Br  1.09077703380392      0.07235513141200      0.06884243906944
  C   2.98785783251390      0.09556322787036      0.01489451993538
  C   3.66239258427429      1.30626464882900      0.00104911177253
  C   2.88536251056039      2.60333714622412      0.01563945694034
  N   3.81015289461841      3.71363837408738      0.00916148135923
  C   3.43690053564641      5.05524148944887      0.02833757006797
  N   2.29295874461006      5.58121327063688      0.04626508770828
  N   4.62842231936775      5.77195553076195      0.02337510590574
  C   5.74743735852116      4.96876704051937     -0.00004027526537
  O   6.89204704024289      5.30571939005452     -0.00828307979732
  C   5.17272787255587      3.56321474291339     -0.01134248444577
  N   5.82854443190251      2.48208588389622     -0.03364001179591
  C   5.06954973627843      1.30263928592939     -0.03139603571186
  C   5.73878745127858      0.07537823251764     -0.05887018089593
  Br  7.61937078478694      0.02493151071226     -0.12112257417983
  C   5.04133338966244     -1.12171915521044     -0.04583560604136
  C   3.65871600442935     -1.11718086376285     -0.00726992042992
  H   2.24696041684875      2.64998339429314      0.90404942740849
  H   2.22694932527224      2.65556847986961     -0.85805282753493
  H   1.54935501767995      4.88950191268801      0.04559409342561
  H   4.64595568780778      6.77915196407217      0.03572790587176
  H   5.58403666539613     -2.05632529951356     -0.06599318738529
  H   3.10340436194185     -2.04428533824947      0.00390998401871
