23
Coordinates from ORCA-job 7521optt
  Br  1.76425838923929     -1.14517563619922      0.69294274750841
  C   3.41857914218606     -0.73960949870445     -0.13168480737238
  C   4.16276389780150     -1.72923256510387     -0.74824516470572
  C   4.29272027220212     -3.26838095830401     -0.63500842536373
  N   5.77580146905345     -3.51684554364163     -0.80662156411094
  C   6.66596508049644     -3.85451473229834      0.25503915698458
  O   6.48221691674200     -4.68509418957220      1.08644098139572
  C   7.94685803373958     -2.91572173295391      0.13661844441612
  C   7.46533071701364     -1.87287804738862     -0.82899678875482
  C   6.30344023237603     -2.32082523937853     -1.30918260440286
  C   5.37222315617062     -1.28017294241776     -1.24773545972719
  C   6.05366663137212     -0.16109169327050     -0.81626882301922
  O   7.38357163937682     -0.48389409869016     -0.63755235891113
  C   5.29527643986000      0.87687059295481     -0.26277634916435
  C   3.94759501268393      0.55695341324498      0.00024102957635
  C   5.84842886960985      2.11576233475697      0.17321846011114
  C   6.30144755704316      3.16252408837031      0.54170746754843
  H   3.74751618226728     -3.79965861647549     -1.41346198135836
  H   3.96678424153912     -3.63745815358865      0.33686955854827
  H   8.79093417478514     -3.52551215911528     -0.18607554078453
  H   8.17487938185470     -2.50934034745253      1.12183161688318
  H   3.33736511149955      1.31999613167599      0.46337873389782
  H   6.70537745108755      4.09029959355210      0.87032167080522
