23
Coordinates from ORCA-job 7523optt
  Br  1.00606128928516      0.03988180373530      0.26122928689277
  C   2.89088795939912      0.06275856373905      0.16247159013948
  C   3.55507943852195      1.27468078662845      0.06259486162238
  C   2.80034038597391      2.58074551372729      0.00845121614871
  N   3.76281182002734      3.66390279151012     -0.08170743247123
  C   3.41477521722930      5.00650679027927     -0.11876859328812
  O   2.31250314109838      5.45072376592335     -0.09303570970198
  O   4.55207727116042      5.73390250335257     -0.18906652821036
  C   5.69357103068084      4.87811569729477     -0.20770742684803
  C   5.11898054394676      3.49153478929048     -0.11944370805903
  N   5.75375840802823      2.39565982011663     -0.08605319236400
  C   4.95165198506968      1.24455740189638      0.00590940040553
  C   5.58661013369901      0.00489240746745      0.04517215046366
  N   4.94658561327740     -1.14566053274528      0.13157695322797
  C   3.61318173870875     -1.13761199298805      0.19123450066110
  C   2.95291908612334     -2.40566316826114      0.28366530929945
  C   2.40418578957185     -3.46739628576421      0.36039756560654
  H   2.17798124742746      2.71146627274230      0.89651872551391
  H   2.13056822573685      2.60541706122434     -0.85483717213617
  H   6.33462658718220      5.10411090642130      0.64322345857487
  H   6.24568993959829      5.02399113480103     -1.13546563634575
  H   6.66933179009457     -0.02433392938380      0.00074134948432
  H   1.91982135815915     -4.41218210100763      0.42989903138400
