22
Coordinates from ORCA-job 7524optt
  Br  0.98339270167746     -0.44385327627213     -0.12004648639035
  C   2.85236435256579     -0.24734941479442     -0.03495013695456
  C   3.64197074725272     -1.33191444478192      0.00722582605655
  C   3.18432801717458     -2.76919968638801     -0.01458639095794
  N   4.45953860644039     -3.46080081786556     -0.02650309174038
  C   4.66887829616011     -4.80228411254060      0.08566244048478
  O   3.83460670364573     -5.66617696016544      0.10251797045226
  S   6.44805314121241     -5.01648537806740      0.21322659389950
  C   6.72737712658185     -3.30806503281583      0.15569833377472
  C   5.57140820138764     -2.62744475039535      0.01799324360569
  C   5.08749309481340     -1.24317200741352     -0.00938321169643
  C   5.80308933248133     -0.08133396914178     -0.03505076427476
  C   7.25468429565791     -0.13478021685665     -0.26805113494355
  O   8.02642168669033      0.77801347271667     -0.10032109007116
  C   5.17470676415099      1.24036976902193      0.13783414740977
  N   5.72171460995568      2.35269080920984      0.35977086706689
  S   3.38943885611053      1.38127162477913     -0.02965830929903
  H   2.59434256921459     -3.01089848583305     -0.90076637342194
  H   2.60232334480142     -3.04745000403093      0.86695154951186
  H   7.72343374161782     -2.91925250384462      0.26789151457927
  H   7.61618568607538     -1.08952556038674     -0.68188046330313
  H   6.73624812433185      2.26464094586643      0.40042496621194
