32
Coordinates from ORCA-job 7533optt
  Br  0.97943823180655     -0.22583095593161      0.62703057170619
  C   2.82200325821147     -0.06069308955303      0.24935549434803
  C   3.56774485136926     -1.16217154092287      0.07536479692435
  C   3.15566656544079     -2.61912637524728      0.07619508736345
  N   4.27347543416462     -3.34840135534242     -0.54910318392372
  C   5.48907782231953     -2.55352177915493     -0.26963036816210
  C   6.09843191069391     -3.02161102384356      1.06914217802757
  C   7.06348138840046     -4.12461119650734      0.65226532833724
  C   7.75622880087558     -3.48923672853550     -0.55065617382036
  C   6.63082836583762     -2.76028473826558     -1.31046877126559
  C   7.09631594032189     -1.45369922055783     -1.97074395389185
  C   7.10711004090946     -0.25829695522967     -1.00231729377045
  C   5.70594174283048     -0.06504731938451     -0.49379591866280
  S   5.02090074064747      1.52492302107466     -0.41885412501352
  C   3.34395999891369      1.30918765405389      0.17443056560148
  N   2.63440384124551      2.31941061283076      0.46006179682673
  C   4.97345312799187     -1.14225203991662     -0.20733592046170
  H   2.22102215061515     -2.78804210642481     -0.45585592541721
  H   3.00837679777077     -2.95934220916948      1.10551860708464
  H   4.12308857682118     -3.35771906662398     -1.55288624089146
  H   5.32623426016567     -3.33770979713617      1.77028902413100
  H   6.65514257611921     -2.19578741511822      1.52224717486326
  H   6.49710366624242     -5.00559831401493      0.34294315436710
  H   7.75358401556085     -4.41858058652567      1.44243410057897
  H   8.28344757964803     -4.20035902177138     -1.18622471537540
  H   8.49364658207403     -2.76061979352640     -0.19844566593740
  H   6.24735405713267     -3.42528097863508     -2.08825328388140
  H   6.43715686499036     -1.19726613779072     -2.80302616300695
  H   8.09595145512940     -1.60185939995171     -2.38517332811222
  H   7.46793130831477      0.64001537764216     -1.50498109781879
  H   7.78473582466888     -0.44998383464669     -0.16387058308769
  H   3.13476222276640      3.19939631412658      0.35534483234060
