24
Coordinates from ORCA-job 7539optt
  Br  1.31520224908279     -0.45903780197092     -0.03465283144748
  C   3.18990333974045     -0.20003927548425     -0.01265485846228
  C   3.69215161462198      1.09268468745112     -0.02981444014023
  C   3.23135447612444      2.54021583801846     -0.02584795162115
  N   4.50529505201434      3.28837936709124     -0.30003114964371
  C   5.57989596628626      2.50805969918849      0.31069134634222
  C   5.06599457438074      1.16591252310490     -0.00168085956462
  C   5.82973618683253      0.09107095046126     -0.19651794082916
  C   7.28700324826989      0.06493836350637     -0.14502190863106
  N   7.81967472501745      1.32934021485079      0.39302641950477
  C   7.06012293891092      2.52196581527683     -0.06772360031505
  N   7.60974930950662      3.47292758026796     -0.66633649934198
  C   7.44109969187904     -1.33031364063476      0.52248467917702
  O   8.35786329738211     -1.83005458470232      1.06498224200750
  O   6.23266091799484     -2.04291455341082      0.31527217861327
  C   5.24161902452471     -1.12946908306311      0.01019855024812
  N   3.94855882327958     -1.31082505445909      0.09832290944760
  H   2.79206065419792      2.79930881834871      0.94594396519883
  H   2.49664423845769      2.75170357041571     -0.80145457182373
  H   4.46489055480459      4.24644592519066      0.02097123008015
  H   5.58217263618739      2.59816069298346      1.41471225436724
  H   7.71411467477436     -0.08216262748411     -1.14568682496308
  H   7.84831542802865      1.30861821378452      1.40853597492700
  H   8.60291637770062      3.27608436126889     -0.80071831313018
