23
Coordinates from ORCA-job 7543optt
  Br  2.71156757706628     -0.86739577031234      1.41955583689451
  C   4.21922894703736      0.03355677807190      0.77057262683743
  C   4.23993544077598      1.34283104042375      0.46484736373023
  C   3.29557610836287      2.46731354191436      0.31552495816713
  N   3.85154657031679      3.47566940293579     -0.26993421648312
  C   5.18761055622741      3.10752381420937     -0.52970276296910
  C   5.46296999608251      1.85925585787942     -0.06278797673733
  C   6.63250266724616      1.08141839017028     -0.20453315765265
  C   7.85086933864040      1.64672904302984     -0.47740163302376
  C   8.06914056613865      3.06721592657208     -0.28841884138866
  C   9.40269652936598      3.47419209744206      0.32766550001409
  C   9.89103921217741      2.55193809398728      1.35093698692814
  N   10.27761034670819      1.81487252842438      2.13798756376811
  N   7.25950905747395      4.05572084567611     -0.43995701071362
  N   6.10649452990805      3.85790094681521     -1.27698722717227
  N   6.54068174901082     -0.28508202143399      0.06074777427550
  C   5.43676251265552     -0.75062061582000      0.52485160680473
  H   2.25735557545115      2.47039743458865      0.61760923391637
  H   8.71309342573200      0.99075217717640     -0.49100959797150
  H   9.28874649740516      4.47185406203963      0.74925705882939
  H   10.15522277934245      3.53337867111885     -0.46279679873066
  H   6.38893564659435      3.32138475532367     -2.10090945491265
  H   5.39090437028043     -1.81380700023271      0.74188216758970
