23
Coordinates from ORCA-job 7549optt
  Br  1.15868965833331     -0.01628704121827     -0.32538783411683
  C   3.03055088979890     -0.10026758297866     -0.23058124635709
  C   3.79547919517121      1.00473203115260     -0.13829090597836
  C   3.40470148195269      2.47839434164087     -0.13141636674566
  N   4.69984324874288      3.14934954029662     -0.32813409908100
  C   5.74491440027201      2.33614164687470      0.25387299691013
  C   5.20701688309805      0.95995989441386      0.04586156152741
  C   6.00222615674627     -0.10650943067044     -0.00736470573677
  C   7.48040497316777      0.13327100033963      0.12037698793222
  O   7.88165951400194      1.38820337033495     -0.42955644150848
  C   7.09970264885848      2.49499379905883     -0.41220089166046
  O   7.49636751405904      3.51454814596456     -0.87828331656136
  S   5.36955482617483     -1.69027921990055     -0.21794406452562
  C   3.57546223397404     -1.47026377387987     -0.23268261524928
  O   2.92320610967811     -2.47441060934056     -0.27959160590557
  C   2.45620300561560      2.89428115930379     -1.16352912469114
  C   1.69868987988913      3.29483885007888     -1.99722686866588
  H   2.95426782414982      2.68651101506642      0.85249425077823
  H   4.70649526153034      4.12252001041203     -0.05878434883864
  H   5.91197906052825      2.51334739734795      1.33138169284699
  H   8.05272950739247     -0.61824857033614     -0.42150192743657
  H   7.77789045248605      0.09470337194053      1.17285191082125
  H   1.02096527437871      3.63747065409826     -2.74236303775753
