23
Coordinates from ORCA-job 7551optt
  Br  8.28199321033384      1.45329205385422      0.09963347299012
  C   7.21586140443728     -0.02627251914537     -0.27145868734728
  C   7.14860633983080     -1.08562541283667      0.54746663289722
  C   7.64773807647727     -1.32941811863098      1.89197294833950
  N   7.09433712165029     -2.36714176920012      2.41255225723809
  C   6.21669565678676     -2.90545088096699      1.44730724892828
  C   6.25228848367251     -2.20010274225260      0.27479271086523
  C   5.66258001843069     -2.21807513724793     -1.06237204823781
  N   5.12205398135140     -3.33479075051547     -1.63493252396743
  C   5.30016779982095     -4.67144800099319     -1.27513389995122
  C   5.04926813224263     -5.18009956805197     -0.08021499133518
  O   4.45181622136246     -4.44689570061494      0.91306170275773
  C   5.30103471913393     -3.96902915502333      1.89242065901430
  N   5.21958863880997     -4.32547486392115      3.09125217627947
  N   5.68959056855227     -1.17573524743592     -1.83314299935881
  C   6.35469192068560     -0.01318372016062     -1.48662547070123
  N   6.29216134568832      1.06003380349577     -2.16568187591212
  H   8.36263074952783     -0.71853221474636      2.42620552829674
  H   4.90638571019489     -3.15978868905054     -2.60694130482638
  H   5.66200083594870     -5.32477658306418     -2.05902985448808
  H   5.26217813496988     -6.21561715064286      0.15522155368065
  H   4.48720507866717     -5.02770291168540      3.19757095834574
  H   5.65312585142447      0.91983527883663     -2.94892419350753
