23
Coordinates from ORCA-job 7552optt
  Br  2.23376066648301      0.42124167351720      0.92506965411761
  C   3.94357436206055     -0.27059586038543      0.67202000969076
  C   4.22990046175478     -1.41440551778765      0.01975782066144
  C   3.45894450354368     -2.43958768380836     -0.62525053958934
  N   4.23602933152518     -3.37096149413755     -1.10739268201430
  C   5.54516804220106     -3.01022858352465     -0.84080688383429
  C   5.61461681822669     -1.83845179293147     -0.12348950441122
  C   6.62979321542483     -1.06979714582317      0.55238122498391
  N   7.99982380550245     -1.35597993677249      0.80177182407931
  C   9.13134166605770     -2.02529299328454      0.32570271890919
  O   10.15871581671420     -1.88391419274898      0.94171140900243
  C   9.09880035254203     -2.94425874140288     -0.90853715101586
  N   10.08696933645112     -3.66289657321303     -1.19790586549253
  C   7.77581648407842     -2.86335438836301     -1.51876643422319
  C   6.78904993342238     -3.68676373715308     -1.15411797745947
  C   6.19809545534517      0.06752955632767      1.15401270560795
  O   4.89472716595910      0.47402097179117      1.20147825622894
  H   2.38307900273288     -2.47050189006719     -0.72048084364351
  H   8.32480236144248     -0.83091510171825      1.60512878962661
  H   10.83189625470686     -3.49973871549775     -0.51293019978183
  H   7.49985586877217     -1.86441228959959     -1.84510945468393
  H   6.97741352506763     -4.70444510574966     -0.82926063121846
  H   6.83082556998555      0.75870954233273      1.68801375445976
