20
Coordinates from ORCA-job 7554optt
  Br  1.27026948098425     -0.33065482221850     -0.51507254729610
  C   2.85493958773261     -1.27241387182339     -0.75689519836363
  C   3.63149582703663     -1.73883213343572      0.25367002739204
  C   3.69911175193309     -1.78127652841400      1.68295084659015
  N   4.77332840852219     -2.42169649227568      2.07608746047267
  C   5.48763707168074     -2.83220783896876      0.96420025708050
  C   4.81347796894037     -2.41641470703093     -0.17036166900659
  C   5.01951386680572     -2.61144582702052     -1.56301076902965
  N   4.25169918386947     -2.18858878309204     -2.49358018281698
  O   3.14592256342865     -1.44171885915642     -2.03575180701740
  C   6.16297679314495     -3.56664258344694     -1.56945024718884
  C   5.82904139480377     -5.03591459862744     -1.55279653271502
  O   4.73045391630320     -5.43203622417779     -1.81246189162273
  N   7.16658717992501     -3.03381955673411     -0.98275745738687
  O   7.59449842895630     -3.88461520844186      0.06232999691231
  C   6.74369070771413     -3.63349282970541      1.16047328384749
  N   7.04912131194134     -4.09276036316166      2.28322883981811
  H   2.99972972696184     -1.35236388674388      2.38529895207438
  H   6.67718307531471     -5.70359365801508     -1.34610057601522
  H   7.93132175400095     -4.60251122750982      2.25099921427139
