18
Coordinates from ORCA-job 7555optt
  Br  2.14535531813921      0.60319351567027     -0.25720186615143
  C   3.93989599127755      0.07623315294109     -0.27012780299352
  C   4.35954512078620     -1.17969245748265      0.00650901220353
  C   3.71110891561215     -2.40377160146028      0.38212625870136
  N   4.57284301464040     -3.38248587703096      0.54960057051700
  C   5.80849399625497     -2.87054198353254      0.26462379140976
  C   5.77353944593274     -1.52491890538008     -0.05104978588201
  C   6.81768278107321     -0.54767853089552     -0.16353372002145
  N   6.56381088160255      0.68851725529457     -0.44764123495381
  S   5.06363413149182      1.31429755578139     -0.64234780258385
  C   8.30832252605145     -0.79106737847900      0.15090894541830
  N   8.87737145323683      0.08806212278863      0.84454112018130
  S   9.22458236435749     -2.20704464437950     -0.51951207282469
  C   7.72854536463278     -3.13054879722156     -0.68858777302994
  N   7.07969892909606     -3.41618943782428      0.37153434376797
  H   2.64867005940061     -2.54828621131577      0.51521019308405
  H   9.85773763198961     -0.12698568940966      1.02487337012150
  H   7.25116207442432     -3.05409208806413     -1.66792554696407
