19
Coordinates from ORCA-job 7562optt
  Br  1.91616475057749     -0.62242828927755     -1.94592873511857
  C   3.33042587719635      0.51228649732742     -1.53777883962193
  C   3.21242943183896      1.79139400469476     -1.15902804635163
  C   2.20057422858390      2.87813269076832     -0.90468404059998
  N   2.75056769570917      3.99881077725757     -0.59081448787630
  C   4.16768458182765      3.78087362658018     -0.59886531368483
  C   4.41372632734570      2.50440761928126     -0.91781813931641
  N   5.72508306993027      2.13177311390159     -1.00626254837245
  C   6.43748816354807      3.30887666638320     -0.70360229804271
  C   7.71857746647324      3.73705832281950     -0.59502958593757
  S   7.64770589225033      5.39512245564523     -0.18406335873662
  N   6.01480970171731      5.53790993003866     -0.15206864720446
  C   5.48731563910752      4.37733191300325     -0.44071574960800
  C   6.02278063966385      0.84328121686327     -1.38062874012364
  O   7.11980261332811      0.39344004966232     -1.50818824894750
  C   4.73606992402985     -0.06075314638685     -1.65223998662177
  O   4.92773282692863     -1.19592247000340     -1.95353935326468
  H   1.12869767437469      2.75760086521756     -0.97175772645393
  H   8.64236349556885      3.19880415622367     -0.72898615411703
