23
Coordinates from ORCA-job 7567optt
  Br  1.75295698081882      1.50786566596717     -2.15705374943552
  C   3.15731374414239      1.14431174592376     -0.99316211069678
  C   3.89823980632779      2.10775030771523     -0.40128158310791
  C   4.94984855857041      1.69165497658697      0.50348648048483
  N   5.59113351632460      2.82700331649565      0.96422539121661
  C   4.93585333754082      3.93399715308846      0.46898730262673
  C   3.92545154891596      3.56107476373751     -0.39480294337804
  N   3.22553498351798      4.36611654499510     -1.26004928971241
  C   3.00792661462473      5.59428667179038     -1.01165061346390
  C   3.33670359043266      6.24883700240371      0.29373823313765
  N   2.49254841599932      6.72948329941438      1.09785057928776
  N   4.70656196108341      6.33869842894693      0.56907966492664
  C   5.41068819272195      5.28454415034421      0.68346665295495
  N   5.23685660704764      0.48774450996421      0.82836156471079
  N   4.47267553058132     -0.43846554107579      0.22241086156286
  C   3.44364590831221     -0.26669935216584     -0.70103947058928
  N   2.79161988500718     -1.21705706547274     -1.24831076103026
  H   6.24910993489004      2.82918226130546      1.72506600472190
  H   2.51678887559922      6.19668784599037     -1.77280932260639
  H   1.54601210471227      6.61534245446875      0.73516134158218
  H   6.46385951053065      5.40640162017794      0.93339808775509
  H   4.70289798996116     -1.38338652603884      0.48532748317576
  H   3.10577240233740     -2.13437423456303     -0.94139980412325
