23
Coordinates from ORCA-job 7571optt
  Br  0.99720331228887      0.28443886011747     -0.08129030102953
  C   2.86010226296760      0.07075770890052     -0.08801866738267
  C   3.40834293005046     -1.16383190503223     -0.10923191461676
  C   4.86212382357147     -1.31499455183965     -0.13637839917141
  N   5.20204825221398     -2.68167576386086     -0.22341823098591
  C   3.99460737353165     -3.37377804499981     -0.13565272071850
  C   2.92988191372170     -2.49896170728180     -0.11361203839720
  N   1.77263788774170     -3.23775037643570     -0.09662411271235
  C   2.13527922180532     -4.54584704633452     -0.09448343217185
  O   1.09989797321393     -5.42878491787424     -0.06842310330132
  C   1.32287482658665     -6.76112708678489     -0.04987736504360
  O   2.38668723315410     -7.28850909510627     -0.05451120283112
  C   3.51190044216452     -4.69889540593674     -0.12175734108631
  C   5.62266990190990     -0.21947534667187     -0.11543883416886
  O   5.06569776750857      1.01324767803927     -0.05969941370632
  C   3.69786416152603      1.25439391244838     -0.06263742199031
  N   3.25954913322954      2.43880977854418     -0.03871072933045
  H   6.02749139716868     -3.02592925303635      0.23919205976830
  H   0.82956490987024     -2.88588486734505     -0.08629705014375
  H   0.35392185682445     -7.26934385530285     -0.02886581253947
  H   4.04453757248031     -5.62956193488482     -0.13146382793787
  H   6.70166150880238     -0.18705066041986     -0.13778669544483
  H   4.02145433766790      3.11175388109771     -0.02501344505789
