18
Coordinates from ORCA-job 7573optt
  Br  1.02521286520437      0.52244714171371      0.11050079677901
  C   2.89959644963870      0.44824660867930      0.08678748167648
  C   3.62886919715838      1.61467781317171      0.07208914846158
  C   5.07458223978241      1.54567266745742      0.06038270384157
  N   5.72101671025257      2.68191062316267      0.05030368079084
  C   4.69161346015580      3.58907692838873      0.05394744280198
  C   3.41381400365747      3.02876182067694      0.06656113456249
  N   2.39357466765693      3.92033815360947      0.06799811603966
  N   2.79001696508135      5.12384693624476      0.05749390597752
  S   4.49822683457424      5.26803117930331      0.04499129850748
  N   5.60056636694814      0.27627298856481      0.06191757499640
  N   6.91287371615679     -0.09657161908301      0.05236144971585
  C   6.86848179141388     -1.38827922422977      0.05798959980361
  N   5.59120563574555     -1.86831540445085      0.07067319653375
  C   4.75613105802667     -0.78924108057144      0.07384867897980
  N   3.45065452483864     -0.77265246155133      0.08662431743117
  H   7.74211124065882     -2.01790364134425      0.05374339018010
  H   5.28245227304926     -2.82631942974219      0.07678608292071
