21
Coordinates from ORCA-job 7580optt
  Br  1.20490129922838     -0.13508192216430      0.01471043845932
  C   3.08537339385246      0.04011348422938      0.01096821731367
  C   3.72739742411055      1.26489404948258      0.01102797236627
  C   3.06959908119617      2.55819093018430      0.01284561315569
  N   3.67029538043979      3.69979877897168      0.01317408015881
  C   5.04220598764358      3.70594717390599      0.01184778363298
  C   5.78542067799691      4.87078675783649      0.01255694753980
  Br  4.97656731343169      6.55047879759578      0.01545178372538
  C   7.19021070284385      4.78619163780855      0.01118348262414
  N   7.84094397613275      3.64605341182342      0.00911797923330
  N   7.13070204422047      2.55001201750367      0.00837611206538
  C   5.78634026818623      2.49609727307108      0.00967324308735
  C   5.13466676793406      1.25318674644710      0.00905706600464
  C   5.89139100589965      0.01501860184345      0.00683868643962
  O   7.13999466433568      0.03254380271230      0.00530626829674
  N   5.18825986698698     -1.15407380621181      0.00629256065596
  C   3.87688123851128     -1.12155686843313      0.00834380412734
  H   1.98429832073293      2.57854644654738      0.01390700737641
  H   7.79942400372157      5.67907214513009      0.01172561791681
  H   7.56709484322506      1.57906603864028      0.00665798600878
  H   3.36903173936992     -2.08228549692431      0.00793734981159
