25
Coordinates from ORCA-job 7583optt
  Br  1.06485422761799      0.02011497890426     -0.80987382859453
  C   2.86040659879140     -0.04437318025106     -0.27215125417810
  C   3.46967679042347     -1.14861786433112      0.20112998797014
  C   4.93080085277545     -1.12080899516294      0.33814538013306
  N   5.67653162200966     -2.29492271340216      0.61627324591063
  C   4.91815426855266     -3.53175677835399      0.74384761076584
  C   3.69024407803429     -3.22317986434232      1.56935196669494
  C   2.82256948990492     -2.50445385064644      0.50541668471524
  N   3.05247563752097     -3.38169562828688     -0.64590546454569
  C   4.31633976192342     -3.91606730367007     -0.62333937301651
  O   4.86917164927518     -4.49967503420065     -1.51916828926352
  C   1.43769608664834     -2.49463975015310      0.96739633000629
  C   0.35143780967366     -2.58966951101773      1.45865995472929
  C   5.56083221929926      0.04472551407543      0.16754081230161
  O   4.92556599296142      1.18812194071710     -0.17858179029148
  C   3.59251510138348      1.21603529808098     -0.48817859658513
  N   3.04570150710216      2.27417488221254     -0.89853904091198
  H   6.46273659605341     -2.39892637841578     -0.01150757206000
  H   5.56273232430313     -4.31705412327640      1.12935392958303
  H   3.89329333107774     -2.58797383803511      2.42914069120890
  H   3.17009382581028     -4.12606455985453      1.87982908091894
  H   2.56457956738108     -3.23803776892544     -1.51912678745261
  H   -0.63019461567541     -2.64320501563905      1.86619232119398
  H   6.62715431312425      0.17907596091540      0.27250871912611
  H   3.72463096402767      3.02987358305912     -0.95941471835844
