22
Coordinates from ORCA-job 7585optt
  Br  1.65163841481585     -0.87578165662534      0.56074243195356
  C   3.41942940082625     -0.22736632069997      0.51171563580286
  C   3.75395923159708      1.04200420720405      0.23319167377283
  C   3.03601082503543      2.27554100481118     -0.07309762712004
  N   1.69860191200524      2.42807851485114     -0.11435358163294
  C   1.10099902174371      3.68702553848895     -0.43737028576908
  C   -0.17264930486983      4.03320012920561      0.26291848574267
  C   1.09786201320386      4.75099971369088      0.61040413982367
  N   3.86881258413547      3.27507779633410     -0.28217765616881
  C   5.14404975497059      2.78177335150472     -0.12776157386523
  C   6.29054965013721      3.61247300880183     -0.30354164339718
  N   7.21990842741424      4.26942734749037     -0.44527770126409
  C   5.16041320512118      1.45133511007137      0.18746872181127
  N   6.24463291986026      0.65619436895615      0.40454979842666
  N   6.17366797194474     -0.54037299425791      0.68788617983354
  S   4.63295727754758     -1.39691160757019      0.84301815367783
  H   1.11797616033186      1.60764609957099     -0.08531130889241
  H   1.22911575071589      4.00423060750867     -1.46520534078805
  H   -0.54948839678755      3.31657820432783      0.97974178110146
  H   -0.92980924856333      4.55702471163114     -0.30134698513258
  H   1.57362613547339      4.50387312909817      1.54818253433171
  H   1.22573629334083      5.77094973560619      0.28062416775234
