29
Coordinates from ORCA-job 7588optt
  Br  1.13885536041187      0.13267186548815     -0.46458854575288
  C   3.00045034147966      0.16589327489427     -0.17103785785628
  C   3.70477027976545     -0.97323772448548     -0.03258258742542
  C   3.36367109429028     -2.44520999520351     -0.22570354569479
  N   4.64419504282657     -3.10277476314769     -0.59344991413115
  C   5.68849090299921     -2.32795500071151      0.10596585607333
  C   7.04916896536653     -2.04437681411712     -0.55413479815482
  C   7.37009069013425     -0.55818949141312     -0.20509287025759
  C   8.23445025155045     -0.32516648541450      1.04531614742576
  C   8.73073377930668      1.10750447502925      0.83229715568963
  O   8.65280194218971      1.35469647290295     -0.57422308764701
  C   8.20617546709496      0.18973038420714     -1.23604754808315
  C   5.97502775935475      0.03172592625816     -0.04114298409451
  S   5.42967474268152      1.65045384379797     -0.23596763577178
  C   3.61290267684676      1.50728974201756     -0.16443669245474
  O   3.00973840360182      2.54413652975690     -0.19228433025029
  C   5.10437613458969     -0.95615809511775      0.15723593024840
  H   2.60125947906393     -2.60578863850407     -0.98581086169141
  H   2.99412630037079     -2.86600130530244      0.71369901203225
  H   4.77862924143265     -2.98835891432864     -1.59378991290470
  H   5.81935832236475     -2.75670170156603      1.10532411425636
  H   6.94054095428681     -2.12745614775764     -1.64035598463877
  H   7.84667930935517     -2.71780103580773     -0.24189656896000
  H   9.06839593356432     -1.02936214941863      1.03880861530384
  H   7.68223252088538     -0.44759149223721      1.97607491581052
  H   9.75838366681092      1.24696109689775      1.17056233138235
  H   8.09555922097842      1.83776661228295      1.33886599722745
  H   9.05151413322235     -0.43586748414367     -1.55226618962091
  H   7.63574708317426      0.48716701514371     -2.11733816005969
