28
Coordinates from ORCA-job 7591optt
  Br  1.10194543288546     -0.16907763889312      0.25677772796377
  C   2.99802399377191     -0.07746178075354      0.05167294547132
  C   3.67115991973420     -1.16152481848944     -0.50875887829449
  C   2.97055930022026     -2.40954549446774     -0.99207774106157
  N   3.09181502486396     -3.47859466794599     -0.01297426039479
  C   4.35821683493532     -4.08285196208019      0.04770798686420
  C   5.53578518762184     -3.56246976587360     -0.44054153380408
  C   5.85015139480550     -2.27215652627346     -1.14096331105200
  C   5.07030235488776     -1.10078645752619     -0.58796977654454
  C   5.74776355929384      0.03016029233399     -0.14491398924791
  C   5.05554217003646      1.10597974857001      0.37032687310845
  C   3.66958139175291      1.06922155349193      0.47943369251550
  C   2.99954519038253      2.27093756351041      1.05060158022698
  O   3.60456417008078      3.26424404947979      1.35907671819943
  N   6.52634488291320     -4.47004793417153     -0.13709975110300
  C   6.00124976619534     -5.54133356317093      0.51744675300217
  C   4.65458094652884     -5.33356127108643      0.65502872770801
  H   3.40253836650933     -2.70394213964667     -1.95804067363494
  H   1.91642710746983     -2.20921473117377     -1.15349050234119
  H   2.35269310716293     -4.16060225171674     -0.09930856540567
  H   5.67757985003529     -2.35217991958825     -2.21986705906981
  H   6.91434054514649     -2.05900731427030     -1.02091183619876
  H   6.82832998676537      0.06226037945259     -0.20793376526913
  H   5.56301445893211      2.00021058344251      0.70915525891438
  H   1.90914949952014      2.21477437175460      1.17899701494823
  H   7.49806671177145     -4.34569494015706     -0.35785566494087
  H   6.61988210994706     -6.36266473052794      0.83516296234072
  H   3.95284673582984     -5.99407063422294      1.13731906709958
