23
Coordinates from ORCA-job 7592optt
  Br  0.91008948698114     -0.27350642291288     -0.57979405966824
  C   2.79119584116587     -0.25939527308422     -0.33822130050607
  C   3.53796582454519     -1.32641775487340      0.01331247071740
  C   2.92397267524925     -2.66030894384729      0.35053026028181
  N   1.81269147935470     -2.91328904410511      0.92072496479440
  C   3.78707322939895     -3.75128053777118     -0.02842368893542
  C   5.12410598550793     -3.63591639049011     -0.31492267655906
  C   5.76838174349827     -2.35336870106249     -0.28028323564842
  C   5.02433593169648     -1.24062249536295     -0.08202574279024
  C   5.64901058357377      0.07682010581314      0.01092932125581
  C   7.06320544697850      0.20100164530119      0.47966950015490
  O   7.70277815544441      1.21510344113240      0.40450531715369
  C   5.01279726068235      1.22205142387779     -0.26094289638286
  S   3.36027771013402      1.34029025920738     -0.71777398032211
  N   5.68002586270850     -4.87323479142842     -0.50631522021707
  C   4.68906743707094     -5.71381060894707     -0.33182449745398
  N   3.52249186268655     -5.08876142477361     -0.02701079699309
  H   1.31608828869635     -2.07600914420810      1.20743822421363
  H   6.84033054343030     -2.30307554439103     -0.41347717056832
  H   7.49056707446355     -0.70534400243257      0.94063194232380
  H   5.53827311751123      2.16767484070230     -0.19150011118793
  H   4.75847558149539     -6.78634765107655     -0.41754980403530
  H   2.62779887772630     -5.50025298526720      0.18632318037266
