22
Coordinates from ORCA-job 7596optt
  Br  1.22463675475591     -0.35568357644910      0.36174800168898
  C   3.07986714329458     -0.19078326663783      0.20970351905028
  C   3.76364694961711      0.99818323608106      0.19679442333365
  C   3.11916998387294      2.29834020430775      0.28039792303693
  N   3.74048090822514      3.42469076157875      0.24820210873358
  C   5.10395516172990      3.39905202635449      0.13018496237559
  C   5.98077892648615      4.44893327405513      0.06377065865373
  C   7.30820908829891      3.90607370512547     -0.05876597888811
  C   7.26577904246922      2.53877354156946     -0.06804928114869
  C   5.88350492616001      2.16593084106669      0.04790276264304
  C   5.21858942124712      0.99051442941757      0.08133902664710
  O   5.92270946018290     -0.18585187735485      0.00736408793238
  C   5.21885172590432     -1.30832228308361      0.01046156681147
  C   3.86164749871284     -1.35530090923010      0.10225066093548
  O   3.51078768220025     -2.66507689594008      0.06972096715167
  C   4.68554435008436     -3.31276816038136     -0.03759237043932
  N   5.73820742671540     -2.56116379093652     -0.07651470786385
  H   2.03916301463344      2.31357666396707      0.37265628001956
  H   5.71435679757735      5.49367222943386      0.09684425983568
  H   8.20761696741632      4.49969602024828     -0.13113114682954
  H   8.09828103637956      1.85870736763161     -0.14947719020563
  H   4.64321573403621     -4.38819354082374     -0.08281053347400
