26
Coordinates from ORCA-job 7601optt
  Br  0.93932745443155      0.06453139701235     -0.20032482690662
  C   2.81734742793184      0.05199993594422      0.00999334600414
  C   3.50598820708120      1.26059536479957     -0.00936382878133
  C   2.83016297663004      2.59371175708508     -0.17723749546482
  N   3.59505603190478      3.61799199712921      0.51036647454658
  C   4.95538242578798      3.68539036432344      0.26310416578013
  C   5.64739592863597      4.89579022545802      0.31473421205156
  C   7.01142410996875      4.92781673816091      0.09156825986893
  C   7.70803771748583      3.75734498409753     -0.19335135830030
  C   7.02815031566846      2.55291132051010     -0.22479515435042
  C   5.65544540385753      2.49261423952184      0.01714816660563
  C   4.90129374154538      1.23395407908069      0.08055291793230
  C   5.51678123438726     -0.00700692555431      0.26022317855801
  N   4.85547330992690     -1.14722247821971      0.29552012917331
  C   3.52769807598972     -1.14004591522967      0.15887494045160
  C   2.94937169619953     -2.51967515585924      0.19818007358960
  O   1.79423686169360     -2.81371970042104      0.07399853824146
  H   1.83002195490357      2.56433352506963      0.24653979378358
  H   2.72793726765000      2.79917569049597     -1.25456680070191
  H   3.13497707653049      4.51391243310171      0.55333640125615
  H   5.10325959715519      5.80905094819095      0.52402468226376
  H   7.53539228419135      5.87438996584914      0.12517567444037
  H   8.77070358873172      3.78681279906907     -0.39021696472804
  H   7.57100478438452      1.64523087593990     -0.45402428809304
  H   6.58975514970869     -0.07424129076940      0.39366552453273
  H   3.73737537761807     -3.27664717478599      0.35787423824663
