28
Coordinates from ORCA-job 7603optt
  Br  0.63647063503343     -0.77470432578770     -0.80333652886371
  C   2.52404535573752     -0.68599164632300     -0.93738505778335
  C   3.35059300376900     -1.32226299804875     -0.02924904974835
  C   2.90935666502190     -2.12591753869943      1.17263999655234
  N   3.66218077301908     -3.37678584259859      1.38435567966922
  C   5.01831224564887     -3.37054158783376      0.86244197568756
  C   5.08950462208563     -4.03013840130445     -0.45411177251761
  C   5.10107784831939     -4.57405851229735     -1.52117197089182
  C   5.55834989957266     -1.92703303384631      0.76118335884290
  C   7.05533445908936     -2.15869635638815      0.58355681999014
  N   7.25170461983143     -3.32548304955763      1.43045875425724
  C   6.10197475676175     -3.99216727948195      1.76046945655328
  N   6.00562573652115     -4.90917065971919      2.62257048625446
  C   4.72971888074077     -1.17661512309610     -0.22342777073909
  C   5.19364700748273     -0.43172838566126     -1.29156328126542
  N   4.38397054884095      0.17573965822438     -2.15732053961261
  C   3.07865248175704      0.05036877649904     -1.98244375540670
  H   1.85251156229517     -2.37048595301073      1.10964154114245
  H   3.03125049059172     -1.48911404813885      2.05502991947756
  H   3.15096021686941     -4.14717963479608      0.97642529283283
  H   5.11880349497568     -5.06179606533147     -2.46679331830341
  H   5.40693472119910     -1.49918004895705      1.76000082481211
  H   7.65043664867891     -1.31181216363556      0.92483853090213
  H   7.30034051894262     -2.36667262113911     -0.46337550521083
  H   8.12901591195913     -3.57068116489880      1.85491424006186
  H   5.04084311360617     -5.22445623465850      2.69093609501126
  H   6.25876131443754     -0.31373710764584     -1.46134889260734
  H   2.43162246721180      0.55030134813225     -2.69393552909708
