28
Coordinates from ORCA-job 7605optt
  Br  3.18714673285824     -0.38076361655941     -2.61003929877769
  C   3.21782712651788      0.32566087562004     -0.86755248276928
  C   3.31439488130940      1.62918085646332     -0.62881315357257
  C   2.94822681644022      2.74792107178211     -1.60007616627877
  N   1.50713616744059      2.72455932055011     -1.43331077343268
  C   0.95682144358536      3.46585926067627     -0.56446225110872
  C   1.36884187459710      4.79610370526533      0.05855723666066
  C   0.27856690366407      5.05641057336233      1.11692429813670
  C   -0.29080012117999      3.65497704632996      1.37110712278773
  C   0.60280682501497      2.91831419303556      2.41164594290636
  O   0.76693136832140      1.52335077235433      2.15714843886019
  C   1.78546272224334      1.05204417175692      1.42500845925948
  S   3.19510998838454      2.10961697927679      1.08107180535957
  N   1.74841663731606     -0.13814279973824      1.01052395138535
  C   2.82177187612677     -0.61848070950199      0.22639230630763
  N   3.33266494694452     -1.76405184247075      0.34026970917712
  N   -0.23784488551803      3.09361598346035      0.03100004084661
  H   3.22328092244988      2.47092391660909     -2.61498594129753
  H   3.43693832364704      3.69028183694991     -1.33483307080611
  H   1.39617457336536      5.56530999424933     -0.71253330732989
  H   2.36223177699613      4.73119114130866      0.49621610037323
  H   -0.50432133190619      5.69572840176910      0.71258236254364
  H   0.66471979999162      5.52032563481581      2.02410204995607
  H   -1.32034529369231      3.67474658721421      1.72423323311939
  H   0.13683349747250      2.97555866727380      3.39417187497671
  H   1.57866357179856      3.39857347361374      2.47421941890417
  H   2.89152100669691     -2.26569293203630      1.11172205179001
  H   -0.47417815088596      2.11687743656958     -0.09028995797738
