23
Coordinates from ORCA-job 7608optt
  Br  1.83966075180609     -2.17731764977330     -0.87554859333941
  C   3.05212982837185     -0.83434365327583     -0.38186970424309
  C   2.70953082553888      0.46559085253522     -0.33020844997673
  C   1.46926451945129      1.20252765409237     -0.59836109293371
  N   0.99673805698528      1.79866398451973      0.42505135379259
  C   0.97768456643806      3.17061935547045      0.21066548269378
  C   0.13486911157289      4.22651672813926      0.31772004945639
  C   0.92185275585512      5.40735430699839      0.10954814578153
  C   2.21355559160854      5.04134870272773     -0.08581136994600
  N   2.28136098897605      3.65303969885269     -0.04438676122773
  C   3.53384346147817      2.98044392030050     -0.01839515626591
  O   4.52974730797712      3.65000685826391     -0.06522949682413
  C   3.72109966201856      1.43958401353252      0.03556904925634
  C   4.97024868673085      1.03039624217933      0.35201201170395
  C   5.33701465669202     -0.37842314761190      0.35344907821044
  O   6.42002103193917     -0.83080248203080      0.64652505224061
  N   4.30236600069203     -1.23795283043205     -0.04766371690897
  H   1.32253925068134      1.59137494539372     -1.61376854987528
  H   -0.92177366379302      4.16757982049504      0.51418980129769
  H   0.55748303496198      6.42111781636173      0.11098002437210
  H   3.10661538854612      5.61743420868227     -0.24407277773981
  H   5.74834076531387      1.73676640718456      0.59964975206083
  H   4.53780742015773     -2.22152575260556     -0.06404413158549
