26
Coordinates from ORCA-job 7610optt
  Br  1.04440188559002     -0.42691985293987     -0.08134323001964
  C   2.90125777732028     -0.29160144733691     -0.32185537881554
  C   3.73753501985767     -1.35197273399587     -0.29375083684984
  C   3.70033286291207     -2.78901148514248      0.18189894246713
  N   5.11359214627405     -3.01952472771248      0.59875805081324
  C   6.00510913912033     -2.12951399049761     -0.15625395876059
  C   7.16949184906011     -1.39162506216132      0.54139205980295
  C   7.12548304594723      0.05149056584835     -0.08877767593388
  C   7.66282744963553      1.06575655343383      0.81813827756141
  N   8.08703649196374      1.85058254862942      1.53754144493759
  C   5.64329056709555      0.21986506791010     -0.39371870822499
  C   5.09349759031493     -0.99524493373855     -0.41220736527309
  C   4.75885674146279      1.36818320553615     -0.47817647334733
  N   4.98733313449500      2.61719110199194     -0.51832531747791
  N   3.39416698519587      0.96649701781823     -0.50255105061408
  C   2.83867009102792     -2.96711682692921      1.42261234172402
  O   1.96837672887803     -3.78140342141902      1.51819242689039
  H   3.35143351774900     -3.48786087071995     -0.58521724335479
  H   5.36030158612926     -3.99763068709375      0.53376111530099
  H   6.34997786232959     -2.58366303746251     -1.09516527333738
  H   8.14499690663622     -1.85798005529902      0.41739508007645
  H   6.94122920371672     -1.31297155818328      1.60467458220027
  H   7.72730690766669      0.08779837480988     -1.00252798197187
  H   5.98192956749717      2.81983139475402     -0.49509960596124
  H   2.74773095711815      1.74345166177014     -0.53170123056656
  H   3.11283398500601     -2.29260680187022      2.25630700873429
