28
Coordinates from ORCA-job 7612optt
  Br  2.02557939083569     -1.50439038197524     -1.80505256184528
  C   3.02975258698344     -0.33936934207265     -0.72272095426266
  C   2.87253761378172      0.99532567597416     -0.67301037101222
  C   1.80450903323954      1.69980949100537     -1.48062931915564
  N   0.70523323354036      1.99578114196859     -0.57777524525707
  C   0.58221803169124      3.16321184515171     -0.15040988452669
  C   1.32599974213614      4.44248012161109     -0.45080816761128
  C   1.83340384188051      4.65515606376586      0.96975777469589
  C   0.52300630249277      4.41585169858439      1.72645181788732
  O   -0.18378229930136      3.43128422646692      0.95048653000642
  O   2.70915780992582      3.60378750012099      1.35692963605892
  C   3.74435398552745      3.19796410380351      0.47576816909505
  C   3.75253765832667      1.69226124283770      0.27074840663770
  C   4.65389757850582      0.98999661218197      0.97971654195194
  C   4.79724838067668     -0.44902481133419      0.86149412583931
  N   5.60626355321456     -1.23134127020956      1.42841188179779
  O   3.91185344181101     -1.04679941643325     -0.01466286538254
  H   1.45588368974728      1.04140260229757     -2.27116324524822
  H   2.23243645629295      2.58279939760039     -1.96465711093553
  H   0.60474895037786      5.22215459181939     -0.70063968994001
  H   2.07101468398328      4.39955520643842     -1.23217673608980
  H   2.27540400793909      5.63476553602589      1.16272651370560
  H   -0.07493296653133      5.32645758527023      1.78850249818852
  H   0.70102924298142      4.00820261929371      2.71977578154092
  H   4.69916960535839      3.47944575582325      0.92459278509864
  H   3.68545761886082      3.70499980300742     -0.48715289463502
  H   5.32288901574853      1.48435744079667      1.67173268269788
  H   6.21512980997358     -0.71612503982038      2.05676390070006
