20
Coordinates from ORCA-job 7623optt
  Br  1.32641435513683     -0.14372601449526     -0.96467567584985
  C   3.12503469761985      0.10937534451182     -0.50331276359510
  C   3.68170369202194      1.23278460051624     -0.01529014220449
  C   2.93710504926632      2.48778386220007      0.27187667323938
  N   1.73839265782148      2.66537647741613      0.65625903542489
  C   3.78171129374142      3.64411468065533      0.02524867470698
  C   5.14584694707644      3.60814675904222     -0.19258102996018
  C   5.50982407349542      4.96445944247470     -0.35148238271878
  N   4.45291098834458      5.74858772655107     -0.23947772856522
  N   3.42113048034659      4.93346360414243     -0.00651548589637
  C   5.86229273916781      2.36244863217210     -0.14219981982207
  Br  7.72647308485672      2.49703128873589     -0.35214042838410
  C   5.16542739567874      1.21342156028127      0.00744799308469
  C   5.66896555182795     -0.14882426031159      0.17496016152551
  Br  7.24880982002343     -0.52947175152913      1.13169196657395
  N   5.04525977562389     -1.20408852741046     -0.16354607335423
  O   3.81209907428868     -1.00103442711928     -0.79632829208900
  H   1.24636743680070      1.79510396416386      0.83680507079444
  H   6.48548977203659      5.38371334940658     -0.53428455866164
  H   2.49074111482460      5.29733368859601      0.12854480575118
