28
Coordinates from ORCA-job 7626optt
  Br  1.36537020575509      0.38673251556556     -0.57707656391099
  C   3.20474250641357     -0.05080497346225     -0.51702645903415
  C   3.61272772438101     -1.30301859678403     -0.22335061094519
  C   2.60052559495817     -2.40988454010472      0.06021212217097
  N   3.14794709757254     -3.73924873845977      0.22009359378090
  C   4.37618315100123     -3.73657707863463      0.99510720134825
  C   4.84973342724325     -5.15428305855715      1.28201676718068
  C   5.42914526698697     -5.85163707852889      0.07140038331689
  N   5.30913587153807     -7.08720476095172     -0.20135743155692
  N   6.23808080893384     -5.06120313538396     -0.72034290859195
  C   5.93722691432487     -3.66573096452663     -0.98279665277251
  C   5.48213614332045     -2.94687562758834      0.29061410288020
  C   5.03703869723625     -1.55761270994499     -0.10826054865256
  N   6.01078826633723     -0.73634566893610     -0.33322035422690
  C   5.87020905696389      0.56510079168172     -0.74334643152982
  O   6.77143365266040      1.29806753314417     -1.02617981341283
  S   4.21290755677868      1.29086554381309     -0.85411541657166
  H   1.85914749258655     -2.42840955670891     -0.73836663103860
  H   2.05923945272437     -2.14304303508658      0.97443926770313
  H   3.27923837634874     -4.19958830492817     -0.67351990311887
  H   4.14279145544117     -3.24796666772592      1.94665056937109
  H   5.64077456631966     -5.11502390064414      2.03557652380596
  H   4.02454423034202     -5.74277545530629      1.67986772453190
  H   4.75685720225933     -7.56359015651579      0.50559068095068
  H   6.59898360361259     -5.57716918416449     -1.51183462702162
  H   5.16332882054051     -3.55974111869814     -1.75703669939402
  H   6.83122430399360     -3.16873639247759     -1.35745817198538
  H   6.34753855342588     -2.83529568008531      0.94672028672330
