21
Coordinates from ORCA-job 7629optt
  Br  1.20325999789118     -0.19897239467376      0.26277970551096
  C   3.05570391448707     -0.00453231396886      0.07105442318918
  C   3.69125766321205      1.18633501078496      0.01899113159105
  C   3.34047251536039      2.59903654316086     -0.06774255201657
  N   4.36193309582131      3.37146210803204     -0.25009088364087
  C   5.50718785184325      2.55906182397855     -0.25134488572637
  C   6.79627024167927      2.97243628139290     -0.18472063993053
  C   7.83315569846328      2.03033101692367      0.28259986723752
  N   7.98916241739272      0.77506773629522      0.18223800735722
  O   7.12932088944071      0.12241433861868     -0.76755088466822
  C   5.84306193317586      0.06147128729326     -0.35975886121868
  C   5.10598741722959      1.17030840792924     -0.16261887837132
  C   5.18242967867194     -1.24698040954372     -0.26499835438954
  O   5.69303593432409     -2.33056639474466     -0.37899152490857
  N   3.78511909272545     -1.14517214225900     -0.03520209612821
  C   7.16544548237147      4.34341949558867     -0.24975767287784
  C   7.53624721876847      5.48210054810126     -0.31230872958296
  H   2.33598217186392      2.99827190041954     -0.00386172055008
  H   8.57656727036263      2.47527074485018      0.94093479660005
  H   3.31832593983917     -2.04121536125890      0.02063794100524
  H   7.84607357507612      6.49845177307985     -0.36928818848147
