21
Coordinates from ORCA-job 7630optt
  Br  1.09338500214257     -0.08290859297798      0.06084076940734
  C   2.96087884156669      0.10659458961804      0.06042310046489
  C   3.60990634960909      1.31151246381975      0.05984495136702
  C   2.95131296193936      2.60249961986567      0.05930485515496
  N   3.53722199086701      3.73901648155900      0.05875112634024
  C   4.93033635494002      3.76031941897213      0.05869762901417
  C   5.58899523012381      4.92852618356289      0.05811222849160
  C   7.03820968094413      4.95049905119919      0.05806625699092
  N   7.82423656511186      5.93339973952666      0.05753724398947
  O   7.66718777312372      3.71036714511235      0.05871772830251
  N   7.01513572331140      2.53515956438273      0.05921708047231
  C   5.73288724442340      2.53987509099250      0.05920201644855
  C   5.04788392483878      1.22607808776385      0.05974212248285
  N   5.73865928546098      0.13310598508135      0.06008115854898
  C   5.09307759341199     -1.08078112397065      0.06055974413762
  O   5.61181452527314     -2.16134835356603      0.06086465424162
  N   3.66325464745649     -1.02610543909442      0.06076221058953
  H   1.86475848094438      2.60990537401937      0.05932469002515
  H   5.04955574673597      5.86601433067754      0.05768151561420
  H   7.30786432467222      6.80815925484854      0.05708449678615
  H   3.20043775310294     -1.92588887139248      0.06118442112991
