20
Coordinates from ORCA-job 7640optt
  Br  1.92933423932461     -1.83131440020787      0.23420169392863
  C   3.07800872471532     -0.35599883826477      0.07678407840231
  C   2.70065797650588      0.93765390117274      0.29431700444781
  C   1.34069904775729      1.21847191505134      0.76503312392304
  N   0.64125446854364      2.27922642754695      0.70217023118673
  C   1.08994134953662      3.45625856509647      0.15121126838693
  C   0.33704885293554      4.47906313833649     -0.25716524042866
  C   1.27910848751061      5.56404289415333     -0.68214682360476
  O   0.99719400589881      6.63756594786353     -1.11263311174567
  N   2.63753724540736      5.11368127319146     -0.47412405008454
  C   2.51367381252155      3.93678698266101     -0.03169549444713
  O   3.60404818598582      3.23407962388185      0.32810202017559
  C   3.76297342684841      1.90287610504070      0.09841142034816
  C   5.01454896903572      1.53905492846397     -0.24603852536672
  C   5.36749158840160      0.16463482743248     -0.45572881732287
  O   6.41320086027903     -0.30874536843919     -0.75255714627705
  O   4.27828546269936     -0.73860636151423     -0.28569302401978
  H   0.84788586042961      0.36742576801472      1.22488164711977
  H   -0.73777341433394      4.55746205457801     -0.26246730290024
  H   5.78888084999706      2.28038061594094     -0.36886295172153
