22
Coordinates from ORCA-job 7641optt
  Br  1.29011565630099      0.26950819659904      0.31782173851516
  C   3.14975630479565      0.11260623286639      0.19400315600085
  C   3.78450926795040     -1.06962578446373      0.12856704206019
  C   3.35864233831412     -2.45573184347978      0.00959007322116
  N   4.35467772750732     -3.23904735295018     -0.18324349800182
  C   5.52172901243675     -2.45917805846251     -0.16655578805844
  C   6.73646857654608     -2.99791166918270     -0.33515269513161
  C   8.05705712943492     -2.36344446522736     -0.16997549851820
  O   9.05145513164374     -3.05395790160031     -0.20518380642514
  N   8.18869055706121     -1.01848730645335      0.09237751971384
  C   7.29727092516231      0.06865183208064     -0.01883948094645
  C   7.96708082540738      1.32234209610681     -0.09011058519712
  C   8.62318918020313      2.32536798467932     -0.13836994807849
  C   5.94326797227535      0.04424543387237      0.00205861224248
  N   5.25991500959155      1.24618181221049     -0.01472519143077
  C   3.98632745563931      1.29387859944928      0.09338879210838
  N   5.16322165061577     -1.13043988718635      0.04419820774766
  H   2.33312471347318     -2.79537965688239      0.04583370822358
  H   6.77858021460339     -4.06101679737030     -0.51509556186847
  H   9.15783112899659     -0.75120584591020      0.18569074680831
  H   9.18602320276153      3.22708597181438     -0.18125633728052
  H   3.51006601927926      2.26955840949045      0.08797879429539
