30
Coordinates from ORCA-job 7647optt
  Br  1.35166151039984     -0.80735121593973     -1.35839899572323
  C   2.78371604856901      0.08012785902126     -0.47842360816558
  C   3.23440521945001      1.27051764203464     -0.91195161179451
  C   2.51327910084961      2.09653559822174     -1.97439832414839
  N   1.17940682769449      2.59060770962852     -1.64710461514490
  C   0.90719711928694      3.27273431127577     -0.39544341782497
  C   1.00093503920158      2.43561415298452      0.91172439784523
  N   2.36432368512187      2.92685529171562      1.04588892270695
  C   2.08915829095342      4.07700704133658      0.19256310508399
  C   3.08859916039231      2.92823482214503      2.28045735846015
  C   3.27323697733037      1.47664884319747      2.73428383876449
  C   3.98636833856471      0.59696251365440      1.73915011581451
  S   3.19595219270451     -0.81362044879498      1.04085736815235
  C   4.86323152443237      0.96605405166326      0.77257061160087
  C   4.44872593194411      1.93572563087259     -0.27204074202389
  N   4.96607044517559      2.97809469625775     -0.75985901600949
  H   2.41152477412250      1.50603924461262     -2.88529512645665
  H   3.15726855641100      2.94009064511339     -2.21189252414671
  H   0.48749490195223      1.86749292488195     -1.79321240163130
  H   -0.02329882007672      3.82593248150959     -0.50956720398801
  H   0.89185107183388      1.35060212945506      0.83156563658466
  H   0.32359570851604      2.81824453145989      1.68992327987582
  H   2.90801703406889      4.35825606621584     -0.47260022447008
  H   1.73326045613036      4.95881065434941      0.74198122806567
  H   2.58232282454716      3.48912564543216      3.08288207283587
  H   4.05827789354496      3.40560236612139      2.10932286747923
  H   2.29556532784594      1.04689087358968      2.95857128570267
  H   3.83911668498564      1.46595527297090      3.67069010100124
  H   5.35399369874670      0.13112363585636      0.27370355162204
  H   5.78474247530065      3.25708502915731     -0.22294793006801
