29
Coordinates from ORCA-job 7650optt
  Br  0.85375651284760     -0.23753989708683      0.41406503774697
  C   2.72235529028666     -0.18709436849784      0.16548955275574
  C   3.53639499116199     -1.26572224183507      0.33211261773089
  C   3.02250987373404     -2.60605708595511      0.81232329674707
  N   3.17662249026002     -3.70185561506727     -0.12371711350607
  C   4.46226439142816     -4.37119988093131     -0.14128111836065
  C   4.48163812134065     -5.39335482146883     -1.27698200943843
  N   4.85050226740556     -4.63388033039060     -2.48013870112339
  C   5.48559882008162     -3.37331242847993     -2.06774278762243
  C   5.68654686078682     -3.52173950734967     -0.54632179985724
  C   5.97089001156057     -2.19640769381784      0.12583483873921
  O   7.08106811385054     -1.96644472285955      0.54838493368249
  C   4.94903159010346     -1.10285347001759      0.10851206596658
  C   5.43064279093201      0.13374998315824     -0.17538578221942
  N   4.60475568111478      1.18966408229534     -0.31728805024938
  C   3.21615945862994      1.13920556167420     -0.20939243761600
  O   2.55240250673639      2.13168449377201     -0.40168087568595
  H   1.97532438207883     -2.51388258745568      1.08624405513409
  H   3.56864036017756     -2.86872253563227      1.72328792917496
  H   2.86607818076871     -3.44657802147932     -1.05378248433779
  H   4.61372874952471     -4.83434158866272      0.83595184393890
  H   3.51359924941442     -5.87924056987099     -1.39295400263075
  H   5.23049123216275     -6.16263077115931     -1.07645447830073
  H   4.05549683399986     -4.47436609192597     -3.08072956866999
  H   4.85148393749177     -2.50747320058132     -2.28602536022580
  H   6.44143041180059     -3.22139064249940     -2.57055012805431
  H   6.57804956563096     -4.12519921524775     -0.36744438273718
  H   6.48901136617103      0.31073808488185     -0.30826763636214
  H   4.97052595851790      2.10224508249062     -0.55206745461923
