27
Coordinates from ORCA-job 7654optt
  Br  2.14619718587421     -0.99069572766463      2.92507713567011
  C   2.82037799746916     -0.00917797622815      1.47233886254020
  C   2.98474326302138      1.32899533595824      1.48368789166913
  C   2.28472994326234      2.26962103208475      2.47222614392288
  N   1.02879400700173      2.39182086736933      1.73071617263989
  C   0.95980133723436      3.21162578386122      0.77923328313486
  C   1.60057171265843      4.55126584299566      0.43184778845427
  N   1.97400092801153      4.37970208108120     -0.97404428491965
  C   1.33529573169371      3.35343349997252     -1.37904391840891
  C   1.77984098320163      2.52849870470159     -2.55150331739815
  C   3.21147132625183      1.98017276536889     -2.24150876716923
  C   3.29783818587373      1.31237480902291     -0.89875186124055
  O   3.03752962152346     -0.01308360351885     -0.92116053290597
  C   3.00015222382703     -0.78212751150340      0.23687895318706
  O   3.01354366031016     -1.96713991799885      0.11957435721348
  C   3.44188243540215      1.95815639803026      0.26832385955915
  N   0.40921086967269      2.82436160273926     -0.46509117085424
  H   2.84717589951822      3.19870046203228      2.59474531511721
  H   2.11921564431768      1.80655195453330      3.43947739119509
  H   2.46432444824834      4.81497698481176      1.03905891382752
  H   0.84478937601336      5.33298384846832      0.56449817209131
  H   1.83579815362516      3.13991573575435     -3.45097810312944
  H   1.08367677610927      1.70990579232194     -2.73541749818125
  H   3.88975578746234      2.83208315808626     -2.24520585827602
  H   3.50849332989286      1.28403536384560     -3.02489194336618
  H   3.66746456801146      3.01332878677268      0.25357805331768
  H   0.16532460451176      1.84371392710151     -0.52866503769026
