22
Coordinates from ORCA-job 7656optt
  Br  1.12101258975606      0.02887887851941      0.01033356927054
  C   2.99450215926288      0.10056460488590      0.01339047733770
  C   3.69830500040360      1.27446416947730      0.01495986834030
  C   3.06508482361131      2.59508755780821      0.01531793993198
  N   3.69717204343558      3.71519662946219      0.01646248281211
  C   5.06645251765440      3.66553881688790      0.01730187439419
  C   5.79080756062453      2.49326458628595      0.01734191680266
  N   7.09956912595472      2.87866017042462      0.01850136873860
  C   7.10017148818476      4.24952212781192      0.01875593595210
  N   5.90010871391451      4.75241789936961      0.01819214299437
  C   5.14769185073305      1.21944335650006      0.01634509267801
  C   5.77172817403622      0.01642828762499      0.01633603586512
  N   5.05413359612039     -1.14301626370567      0.01529262292035
  C   5.77139798450012     -2.37497695992278      0.01540613066673
  O   6.96392789576623     -2.40639946410144      0.01608554786958
  C   3.63465970476244     -1.20695861937013      0.01392156684258
  O   3.06975012670764     -2.27722394380281      0.01322875235047
  H   1.98243004188745      2.63064954423710      0.01470915767518
  H   7.91334469511558      2.28721322485114      0.01870146296616
  H   8.01972525719285      4.81291299867002      0.01943369480998
  H   6.84387228404804     -0.12077275416411      0.01717290610368
  H   5.10515236632760     -3.23989484774936      0.01480945267762
