27
Coordinates from ORCA-job 7657optt
  Br  1.41817786656692     -0.80724274456070      2.71033404083449
  C   2.64511858451490      0.07866111133339      1.58026869007926
  C   2.81650150759011      1.40206721890116      1.64664335472011
  C   1.86869166852962      2.39345527731401      2.33356653285334
  N   0.85928756908800      2.50809117521503      1.28973431061598
  C   1.02980536602251      3.30801231981615      0.33439510066127
  C   1.81998017342728      4.58936902239254      0.08829618263547
  N   2.45456937094901      4.32671003064676     -1.20452229722828
  C   1.84533216901134      3.31923942667507     -1.68178387238184
  N   0.68037794157882      2.91464257672667     -0.98750910660509
  N   2.39397841428749      2.48463701959600     -2.64957663437503
  C   3.71536008055289      1.94395931020163     -2.25870376923612
  C   3.67859907554123      1.21249779799255     -0.92007271477258
  S   3.89493567223405      2.20647654417806      0.51274946869483
  C   3.41854448451575     -0.09074345915715     -0.78697490847445
  C   3.25562121562164     -0.76872797446698      0.51888081846790
  N   3.48113028641672     -1.99992977253477      0.72885706838472
  H   2.38839091680026      3.32100682404637      2.58738850930772
  H   1.43899019388779      1.96199909183958      3.23283081651251
  H   2.56775579872868      4.80014955877488      0.84952690343420
  H   1.12460347057690      5.43318220801137      0.03691946027969
  H   0.43600262494718      1.93234084438213     -1.03598438804569
  H   1.75917146195194      1.75056196745180     -2.93285914818185
  H   4.41432593743070      2.77709700640054     -2.22374066352827
  H   4.03212826842829      1.25694079068795     -3.04171132155657
  H   3.29759573134364     -0.71226392397761     -1.66974828756613
  H   3.84902414945633     -2.45018924788645     -0.10920414552959
