22
Coordinates from ORCA-job 7662optt
  Br  1.09234065832230     -0.11260928477631      1.03611653775130
  C   2.90060243058436     -0.14681995223207      0.47099581115672
  C   3.54135516470010     -1.24668912893682      0.00976463572811
  C   2.81757074662816     -2.53115121452407     -0.28302672393708
  N   1.63179684577918     -2.67231990136220     -0.72942451830671
  C   3.62063106317803     -3.70428123263984     -0.03432670577309
  C   4.97333418137215     -3.65512883701768      0.02127078717111
  N   5.55345861363398     -4.89260010872808      0.14940669478821
  C   4.67175327706027     -5.96681677919420      0.20470156072889
  N   4.91205402467318     -7.19849973551657      0.35137323648378
  S   3.02284570144747     -5.33697665089427      0.02073722737662
  C   5.68229511382558     -2.41589321085024     -0.11020214176830
  Br  7.56820230892312     -2.52266953620984     -0.23206198553778
  C   5.01707904969305     -1.23059193746856     -0.11823768591130
  C   5.70520897784835      0.03731851701806     -0.21297455118032
  C   5.16871817788705      1.21540992217965      0.11347359794020
  S   3.56736950892553      1.42736010247386      0.72038507180953
  H   1.17920040552964     -1.78706230852827     -0.93429944270133
  H   6.55140399925446     -5.02306867434917      0.20709576581247
  H   5.90588068044921     -7.39523580755314      0.44068707353645
  H   6.73307274550024      0.02314601187820     -0.54882264398951
  H   5.72882632478455      2.13817974723159      0.04236839882203
