22
Coordinates from ORCA-job 7665optt
  Br  1.22143290314090     -0.15567804285486      0.23510822226589
  C   3.08264834075977     -0.05485885406888      0.16246753689634
  C   3.75222775163167      1.10174523063228      0.11383614268793
  C   3.36248688510544      2.57165581347727      0.07833766174249
  N   4.66338574384696      3.28424388985896      0.20751529680481
  C   5.71957267764482      2.35788154459121      0.08281652582768
  C   7.06331215259023      2.44554101946807      0.04326925541109
  N   7.78357392022692      1.25940143489523      0.00099852013750
  C   7.32184936781168     -0.05345765432171      0.02141571128845
  O   8.07665783503736     -1.00103460887035     -0.00491820288089
  C   5.86039918699880     -0.09908537997592      0.07096657797276
  O   5.20779139785053     -1.27455937640578      0.09541156064603
  C   3.82551860448480     -1.34659008934998      0.15355680761541
  O   3.31686409664976     -2.42061019819140      0.18499642642930
  C   5.17139227597574      1.05446653436075      0.08281668319875
  C   2.66042714188347      2.92006856601011     -1.15894183506653
  C   2.11214507923779      3.23514465655749     -2.17453538061084
  H   2.72021096351727      2.81089210384746      0.93044410989983
  H   4.72468237823528      4.11190889873022     -0.36736457905582
  H   7.64089574238637      3.35698846252330      0.04629689985319
  H   8.79128081679961      1.31287314003298     -0.03745696551030
  H   1.61724473818478      3.51006290905353     -3.07603697555306
