26
Coordinates from ORCA-job 7667optt
  Br  1.20169217854967     -0.06190119176122     -0.42043158505876
  C   3.07572524796806      0.06214013475473     -0.22694078551039
  C   3.69338282124112      1.25385001927546     -0.10092940709054
  C   2.98530499754039      2.58468155053976     -0.10936384412212
  N   3.74797686597629      3.56647014920676      0.64450498159236
  C   5.05570859728519      3.66461991835023      0.21246551603907
  C   5.72122694430196      2.53418800600591     -0.11303784776132
  N   6.98128680128751      2.59773417223885     -0.64503487998579
  N   7.64129991220322      3.73506461071032     -0.80621482744929
  C   7.05832794804764      4.83694386774531     -0.46577476313911
  C   5.70558399815257      4.94863613487862      0.06738898132208
  N   5.06391124624516      6.01441981808340      0.38343444274344
  N   5.08571060364004      1.28084752844502      0.00654186674544
  C   5.84491777490126      0.11395972502908      0.29358157904520
  N   7.02353524178750      0.09761693397511      0.78175776416864
  C   5.15869385645311     -1.12331384882935     -0.02992456599121
  C   3.83726409093722     -1.15132820495915     -0.26030802400110
  H   2.00557929829241      2.45643164652271      0.34407384632129
  H   2.83570615533064      2.89253885297413     -1.15534864030369
  H   3.32313070310579      4.48529096161217      0.70829004909403
  H   7.47862859567702      1.76137329662360     -0.90772217124386
  H   7.63749958871732      5.73839311448342     -0.62794833137497
  H   5.62847397317725      6.84846531027802      0.23925614900225
  H   7.35624306798210      1.01146197471645      1.07351475975593
  H   5.76171466356289     -2.01916251212884     -0.00099234949390
  H   3.32447482763662     -2.08442196877056     -0.45083791330369
