28
Coordinates from ORCA-job 7679optt
  Br  1.02353386008382     -0.23071145137470      0.69020047791424
  C   2.84015098725175     -0.25147548949057      0.15373301297263
  C   3.62605775262749     -1.37947228592209      0.32005850852456
  C   3.17309011483930     -2.72543234023626      0.81965336887468
  N   3.26858652781407     -3.75048044552226     -0.21000174283479
  C   4.54159271600290     -4.40312779467614     -0.42808000526586
  C   4.49663117452406     -5.07715935728152     -1.79354883669267
  O   4.68550661332761     -3.99331352913226     -2.69207529830739
  C   5.76700007947186     -3.23340016616758     -2.17921470476383
  C   5.78034041878586     -3.46316888141066     -0.65184868529801
  O   5.81010744135188     -2.28716776180240      0.14705782597930
  C   4.95946778499895     -1.25073439755741     -0.09437740690003
  N   5.49098115155684     -0.17671528732575     -0.63169727523818
  C   4.69860607845750      0.88479153171732     -0.78615091765327
  C   3.37116534998131      0.90476686138891     -0.40604113508796
  C   7.01747552283819     -4.21299497529637     -0.18817524449250
  O   7.49472747462828     -5.13753848337391     -0.78023225419948
  H   2.14331987467040     -2.66823109217384      1.16586046955984
  H   3.79056416896569     -3.02800677108998      1.66814724423419
  H   2.90598576277343     -3.40029864580448     -1.09007261925461
  H   4.73320337459490     -5.10185555068228      0.38943188176631
  H   3.52823467201452     -5.53103869378899     -1.99462253817761
  H   5.29273371895672     -5.81778529528696     -1.90311026669446
  H   5.61578525826882     -2.18356380070820     -2.42603383229366
  H   6.70711729993303     -3.58170725637732     -2.61443714090703
  H   5.15140896064859      1.76062291541809     -1.23564235284505
  H   2.76477559615970      1.78807528083106     -0.54093200126939
  H   7.42685026447246     -3.85187683687342      0.77315146835001
