22
Coordinates from ORCA-job 7680optt
  Br  1.58332423746440      0.29564348817652     -0.33933652804236
  C   3.44319729482512      0.16503603969265     -0.06975081093774
  C   4.22268266023895      1.30075937635455      0.03377328790862
  C   3.72991152004181      2.66023763771987     -0.07119530623339
  N   4.42506783501015      3.74533267250137      0.01357242154608
  C   5.75647368993220      3.53089394819721      0.23236368371185
  C   6.30663589576201      2.30114340324929      0.34274664867207
  O   7.62279213235886      2.39750999669533      0.55913939303468
  C   7.82342138548654      3.75857720042472      0.56943978361759
  N   6.77192130232476      4.46204471829654      0.38365138057929
  N   5.61436669349930      1.12187708561673      0.24849295753167
  C   6.21185662104775     -0.08564745354733      0.34853734410497
  C   5.45282784582021     -1.21335026180546      0.24033149610474
  C   5.71184417295902     -2.60014469107915      0.28665322324908
  N   4.58875478155692     -3.28616219483119      0.11766852998286
  C   3.55820119757054     -2.41406208087815     -0.04235717820085
  C   4.00885946589721     -1.10703487121961      0.02029013245132
  H   2.66596696605794      2.76140810562757     -0.24261612461134
  H   8.83778114916372      4.08009972126571      0.73299034518145
  H   7.28017590363325     -0.06815819077747      0.51277719926337
  H   6.66391378165029     -3.08751620602999      0.43357040187644
  H   2.54802346769901     -2.75948744364972     -0.19474228079040
