24
Coordinates from ORCA-job 7681optt
  Br  0.66007950355959      0.18550487295570      0.30823163458874
  C   2.51319534716402     -0.06632966438116      0.17048661671779
  C   3.35258487334541      0.90547200106073     -0.20280416307106
  C   4.78859047001628      0.70117026469815     -0.28049740909699
  N   5.36938559179552      1.90156394692116     -0.64446740239071
  C   4.40029775745764      2.81413671238489     -1.22628583394100
  C   4.54174320341155      4.25236888061565     -0.74833679607175
  O   3.89117220808994      4.30811042361770      0.51921122730285
  C   3.04634265147368      3.26401824332260      0.69366388830799
  N   2.34382453856535      3.03597489858644      1.69867121337856
  C   3.08815871304566      2.35207504011196     -0.54867076880226
  C   1.94557563030798      2.62462703705729     -1.41830976266758
  N   1.11293881866626      2.90328598428902     -2.15371038798449
  C   5.43768966678357     -0.45187540396798     -0.01890475169051
  C   4.77683910031451     -1.67233201508383      0.38628041317245
  N   5.29275585962773     -2.80515506540655      0.63775251134421
  S   2.99805574588622     -1.67630018057186      0.57463751416212
  H   6.30476242056682      1.88916616036608     -1.02005510959201
  H   4.35293973496240      2.74517687587408     -2.31521022997135
  H   4.04788372698017      4.94031113919296     -1.43731710868416
  H   5.57989350514700      4.54927183258748     -0.61097904404931
  H   2.45512395619174      3.75581800298931      2.41101267448293
  H   6.51624343861964     -0.50254728537924     -0.11453900069300
  H   6.30492353802126     -2.78151270184059      0.52814007524854
