25
Coordinates from ORCA-job 7683optt
  Br  1.24243133544476      0.01879740737858      0.45813251719681
  C   3.06540974507027      0.09727786319872      0.05970887125183
  C   3.69946405903132      1.25053980303673     -0.16874468023218
  C   3.32777252672065      2.71072012740695     -0.09663598849206
  N   4.60511533200603      3.43126832095096      0.11215385070434
  C   5.65669042867355      2.59985526897465     -0.51143344539725
  C   7.00441035302996      2.56227768526488      0.18926056701014
  O   7.77939177931055      1.46676128069578     -0.31329596042185
  C   7.28419700399285      0.18810596987725     -0.26849858524461
  N   8.02003776884967     -0.82889334698375     -0.27275064036968
  C   5.81363199812793      0.11004145067821     -0.26685105877533
  O   5.21129429502223     -1.07188423339336     -0.03444067783155
  C   3.82465937375799     -1.17413998229857      0.03731367569181
  N   3.27719376528357     -2.30030684011230      0.12024143978184
  C   5.10337480897610      1.22006932464166     -0.41695194829540
  C   2.69348386151060      3.21642802522486     -1.39132461378041
  O   2.27713823482752      2.50573611322972     -2.25534277552503
  H   2.62496935362046      2.93217399479506      0.71082108581723
  H   4.78221127353364      3.50802406962665      1.10802890781431
  H   5.78870405085166      2.90914113418503     -1.55282006875933
  H   6.85575438396386      2.43904114969382      1.26791001384531
  H   7.60879590388579      3.44733901831597      0.00666703729838
  H   9.00407458644198     -0.56209010528645     -0.26001385976883
  H   3.96850508699611     -3.04743808055443      0.10478338652093
  H   2.66528869107086      4.31915458145336     -1.46591705003943
