27
Coordinates from ORCA-job 7685optt
  Br  1.16337537330432      0.02046652365386      0.06048960152306
  C   3.05167003135167      0.04685539289232      0.02444928292306
  C   3.71877656791792      1.20702423847004      0.19901621739939
  C   2.95489045607528      2.51017182475195      0.39103289779127
  N   3.73134053310538      3.66891109508669      0.79182660076841
  C   5.00850322105252      3.77675272668646      0.10844454946236
  C   5.71554464074130      5.08501852951809      0.48157644197314
  O   6.52995844228298      5.41872486343006     -0.63944295278052
  C   6.06413603113150      4.81678272319936     -1.76151329738881
  O   6.56635140397745      4.97269648540401     -2.82695269000699
  C   4.86033116109207      3.96554696722266     -1.40007084792814
  C   5.88364254187037      2.56489679710543      0.42851835812121
  C   5.18237636420879      1.26148809149165      0.12350085871943
  N   5.94044217930160      0.27751532872850     -0.18824095577657
  S   5.40316960517805     -1.24590199841074     -0.47538029511154
  C   3.66055593805571     -1.27115750233419     -0.20050580005502
  N   2.97834782934035     -2.33834276736144     -0.23054269784124
  H   2.16212797789703      2.35914408230275      1.12204730125474
  H   2.44733563110231      2.72918190794663     -0.55469823430619
  H   3.88388448499312      3.65338347949693      1.79501559259614
  H   6.36287524644650      4.99506760809189      1.35335685712500
  H   4.97589799639097      5.87134999189228      0.64695111557010
  H   4.85350694770208      3.05212664614309     -1.99273542291405
  H   3.95913425498844      4.54187253366878     -1.62459852401615
  H   6.12169539433807      2.58636968699271      1.49774059346179
  H   6.83057199227762      2.57810163793507     -0.11408334282159
  H   3.54855775387654     -3.16804689400489     -0.38820120774226
