21
Coordinates from ORCA-job 7686optt
  Br  1.67494307725865      0.27572938915885      0.04414158284749
  C   3.53029538701274      0.05468667263454     -0.12551350980105
  C   4.11180840332311     -1.14873919434111      0.06799087013171
  C   3.61527752790970     -2.46402308699929      0.43293866219757
  N   4.55391365845290     -3.33558400441338      0.48228588426393
  C   5.73918886200973     -2.70244255586312      0.09607697910996
  C   6.77507272110680     -3.47271767840819     -0.26337629141422
  O   7.89077710665200     -3.15298824728317     -0.96945100965327
  C   8.78616663430733     -2.19847506377711     -0.56956694015477
  O   9.79945445360417     -2.05953768383672     -1.16082035600141
  C   8.34530888594394     -1.34144068012948      0.61749670869247
  O   8.75291752837680     -1.55671006647472      1.72426923288565
  N   7.60128219112470     -0.25924531825164      0.22547164734488
  C   6.36070844147559     -0.22956252555516     -0.07897994416646
  C   5.71545164023695      1.02237463261068     -0.42402765912269
  C   4.37260573659882      1.16137945925277     -0.44251387163169
  N   5.48589498816214     -1.31482674097379     -0.05537059230303
  H   2.58078390827131     -2.69757779895043      0.64018259808704
  H   6.66643847024314     -4.53343056905531     -0.08629498332761
  H   6.37868381336429      1.85777089197089     -0.59473681333211
  H   3.92302656456510      2.12136016868491     -0.65820219465239
