22
Coordinates from ORCA-job 7689optt
  Br  1.20678369556926      0.29293210118234     -0.06091691974660
  C   3.07123687654964      0.02051653164232     -0.07424709840472
  C   3.61723553322229     -1.21137328827749     -0.07860554515790
  C   3.08142556160033     -2.61076776725932     -0.07633686249645
  N   1.89938915562539     -3.06653065539073     -0.07234205856940
  C   4.30107523664218     -3.45126046043296     -0.08120831610894
  C   4.47473228668661     -4.76564228500799     -0.08037958223386
  O   5.71738727734003     -5.33461279538569     -0.08547517095854
  N   6.86670165828763     -4.55613803487793     -0.08897825209867
  C   6.73824347737775     -3.27527554378779     -0.08984464514000
  C   7.95813439846143     -2.51457254290977     -0.09253424632475
  C   8.93030737017369     -1.81331622321409     -0.09430729940296
  C   5.47339253212989     -2.59214931384739     -0.08717871699361
  C   5.07191748112218     -1.30409894494117     -0.08585186212349
  N   5.76473737550691     -0.10628574468611     -0.08905826424111
  C   5.08792991033093      1.06497027277693     -0.08553391431867
  N   3.80559111255564      1.18506156813563     -0.07836514661890
  H   1.20370685800102     -2.32437458330723     -0.07000081677715
  H   3.69525719902149     -5.51313722527277     -0.07531634810617
  H   9.82033345257911     -1.22868997128937     -0.09599323764613
  H   6.77502813053928     -0.11792817209343     -0.09375346283940
  H   5.70045342067727      1.95967307824404     -0.08877223369256
