22
Coordinates from ORCA-job 7692optt
  Br  1.08036461263016      0.18943281432313      0.08036830420608
  C   2.95204085518646      0.10594629970217      0.06458737162425
  C   3.72094034742054      1.22756757058203      0.05672088780787
  C   3.18444339680059      2.58041423287469      0.05483003255264
  N   3.89748777111732      3.65146298131101      0.04981378616148
  C   5.24680245888173      3.49625106603451      0.04653616855432
  C   5.87599725173280      2.29811525809499      0.04593753500739
  S   7.60600246855750      2.46428086031066      0.04141495731908
  C   7.44788660241477      4.25715771333956      0.04176664081024
  N   8.37089468065231      5.11932518639764      0.04072744719584
  N   6.11080964535112      4.56931345848837      0.04339701010046
  N   5.12133562187329      1.13389449322811      0.04947045430697
  C   5.77738327618232     -0.10310978009656      0.04806129346581
  O   6.98202954244910     -0.18757753777403      0.04316209419611
  N   4.94795165704634     -1.18215380013010      0.05254440989508
  C   3.54224943878085     -1.22030793347406      0.06077448511763
  N   2.86101096404616     -2.28984190598661      0.06405010109991
  H   2.10815705797314      2.68223531238487      0.05739900845318
  H   9.29897042376808      4.71150547948950      0.03996628290105
  H   5.79845838313137      5.52769273627114      0.04435830950593
  H   5.44216905985648     -2.06387123448055      0.05064411146402
  H   3.44061448414754     -3.12573327089050      0.05946930825466
