19
Coordinates from ORCA-job 7695optt
  Br  1.05660632406206     -0.16833040607128     -0.64980751504621
  C   2.83346078974035     -0.04764129684149     -0.05638222529547
  C   3.60817058597575     -1.13244698200607      0.14882258020552
  C   3.63718999028344     -2.55182056009682     -0.28781830989248
  N   4.82002342363294     -3.06981042475434     -0.27014889650393
  C   5.72360266676364     -2.06293672664047      0.16810193294650
  N   7.02005717764866     -2.03234358417676     -0.11348576768782
  C   7.56641729164368     -0.82342846332217      0.09652299176092
  C   6.92556581860999      0.23465273791532      0.67910852072510
  C   7.34539018668325      1.38771004518339     -0.01693569213843
  C   6.14825718246656      2.27956283728930     -0.13956404977937
  C   5.08190800981537      1.53966519695124      0.29538704619432
  S   3.32901524401681      1.65167943442974      0.11863200235554
  C   5.55731365909095      0.24916556575288      0.77414634542421
  C   4.95343841867762     -0.93693337433270      0.57588545974857
  N   8.36745996440621      1.09340134809258     -0.78044077446014
  O   8.59027624812666     -0.29756637322687     -0.63493717553169
  H   2.77967989378990     -3.11559926986869     -0.63192870942356
  H   6.12016712456612      3.24002029572322     -0.62815776360159
