27
Coordinates from ORCA-job 7696optt
  Br  0.82646507038191     -0.19993221375740      0.27111104679833
  C   2.69968480432492     -0.13119104530846      0.11263445352131
  C   3.45984180999654     -1.22405095274158     -0.02073138607969
  C   3.34008665966116     -2.75268842181501     -0.06382596545451
  N   4.73074948483789     -3.28469606542508     -0.10949197255405
  C   5.51033545498550     -2.27240838566286     -0.11833867096438
  N   6.85064264854854     -1.99342113745667     -0.16113248037523
  C   7.10631906141333     -0.54247927580446      0.00006855005275
  C   7.89287087485167     -0.15171597768429      1.28646324935108
  C   9.09167048866626      0.64199511410762      0.75477594985989
  O   8.68187510835866      1.11284137576639     -0.52097536140421
  C   8.00776712861471      0.02886286901448     -1.11503135579081
  C   5.68932423221910      0.02770838007534     -0.00984526533581
  C   4.84798495179717     -0.99769231788526     -0.07009646410712
  C   5.17935985064039      1.38244947788086      0.07229980762064
  N   5.77224422399225      2.49771260063264      0.08334287174275
  S   3.35990524762837      1.49494585618250      0.18004704662331
  H   2.78625994690042     -3.09098321172834     -0.94208005081007
  H   2.82588758825977     -3.14076162158548      0.81752562629108
  H   7.57250393291485     -2.67436504228987      0.00643852067379
  H   8.18797900873850     -1.03802152488498      1.84534302447327
  H   7.27173585132601      0.46502295195921      1.93432471218471
  H   9.97155567663941     -0.00175757266038      0.64090836811341
  H   9.35910739971525      1.50174285153772      1.36442739504225
  H   8.72011286246302     -0.74415485435848     -1.43098905932474
  H   7.45184607998449      0.38411637279788     -1.98046990692361
  H   6.78288455213980      2.38092177109396     -0.00770268322434
