24
Coordinates from ORCA-job 7700optt
  Br  1.12346308906989     -0.38275323065310      0.03571355329250
  C   2.99074143981918     -0.13381429511753     -0.02539464544243
  C   3.50204493980421      1.13111288105434     -0.13888255909743
  C   4.90344978400011      1.25382322048695     -0.22339889821947
  N   5.26426543040340      2.59610821099375     -0.37422342380563
  C   4.14341890172205      3.36140211689844     -0.11903986706112
  N   3.97937609241166      4.50553366755100      0.37173952903788
  C   2.53275656904572      4.64514919825994      0.63595385770673
  C   1.95367031759717      3.20440285820397      0.64865309726153
  C   2.89162090008670      2.48940212002028     -0.32380813537964
  C   2.41135439573547      2.68136807962697     -1.76325673573107
  O   1.53151220148870      3.42174444317548     -2.08461147618770
  C   3.13308999646689      1.90165928025344     -2.80073395385318
  N   3.69028663492400      1.30028165612599     -3.60097096612950
  N   5.76564362128164      0.26907788373824     -0.16798748563475
  C   5.22896130035018     -0.95215688481114     -0.03792253492894
  C   3.87120115725725     -1.21400752491877      0.03761987089008
  H   6.19583466157555      2.91145027133108     -0.14903097800283
  H   2.06686781303232      5.25269153908475     -0.14158149119790
  H   2.39626975906143      5.15294443018652      1.58889078151071
  H   0.91169795400894      3.15682079396000      0.34192604680916
  H   2.05992690202646      2.76228643234703      1.63951203467537
  H   5.93347383800101     -1.77384106167559      0.00853764267201
  H   3.50707230083000     -2.22568608612209      0.13629673681564
