21
Coordinates from ORCA-job 7704optt
  Br  1.76310210364727     -0.43294880140804      0.80867629309355
  C   3.36063987958442      0.17867734946357      0.05141793571374
  C   3.55860089815930      1.41018129853592     -0.44936254525274
  C   2.97546738535343      2.82310288498911     -0.30562062980672
  N   1.79930977377015      3.21079217466218     -0.09538800230365
  C   4.21453695479962      3.74742108941827     -0.36943218965874
  N   4.46336702530326      4.94300092723428      0.11789208271903
  C   5.78708471117177      5.24080672752575      0.23513142281691
  C   6.88292983526364      4.38404964055578      0.08235124890097
  C   6.58412936355216      3.07726569029697     -0.34830698663256
  C   5.26631238395477      2.93649511966720     -0.74154612291090
  C   4.93000731358077      1.59373693651454     -0.76365898764891
  C   6.02680950185394      0.87375250875536     -0.43637582354751
  N   7.08694104454305      1.78534521404444     -0.23985315437523
  C   5.77400151024267     -0.45589280437752      0.06646157406182
  O   6.50854872299518     -1.30672015693666      0.44386743481677
  O   4.35746371964728     -0.72762263568632      0.11271756737251
  H   1.14443631285186      2.42878419942225     -0.05661789159098
  H   5.98806150288659      6.24448460460377      0.59041408807443
  H   7.86381885099080      4.72133862995937      0.38497473584310
  H   8.03743120584803      1.52294940275974     -0.03874204968490
