29
Coordinates from ORCA-job 7705optt
  Br  6.41760600477685     -2.59992472017690     -5.29114251234331
  C   5.19580299110393     -2.68632342324623     -3.82744611637979
  C   5.58872952524578     -3.29675068648671     -2.64086141113408
  C   6.96015928986064     -3.84347179709316     -2.36238100552715
  N   7.28876582640924     -3.64717442862238     -0.96816533181590
  C   6.41510386960455     -3.85382082757087      0.06046009671850
  N   6.83349348763340     -3.76887431077030      1.25748072598401
  C   5.91931518517767     -3.96438861034401      2.37285534141251
  C   4.61878020146166     -4.68521380560778      2.00538244830382
  C   4.01869764394065     -4.03152567178321      0.77177730878436
  C   4.99411748385979     -4.17323238863099     -0.38878232795219
  C   4.62897172039422     -3.40246823735743     -1.63640561433711
  C   3.37470467013378     -2.84663237211373     -1.84972484005994
  C   3.12020296908939     -2.22802555653292     -3.06222872898039
  N   4.01395970339613     -2.16033095393441     -4.04521074373012
  C   6.60497147783292     -4.67731986873472      3.45842311437598
  C   7.12548474398944     -5.27023947889065      4.35915240119851
  H   7.69984606229005     -3.32226576407512     -2.96557194045800
  H   6.99721553487170     -4.90303765969532     -2.65361354524847
  H   8.25309779067334     -3.53398134939782     -0.70056766004254
  H   5.65858086429098     -2.97236687983221      2.76419910738676
  H   3.93201166821141     -4.65068186869530      2.85121318776359
  H   4.84072085400206     -5.73673858901673      1.80444473521098
  H   3.83492247614424     -2.97055457896029      0.96758714737009
  H   3.06142394898569     -4.48797132610082      0.51629204181636
  H   5.02017311669503     -5.23157549836632     -0.68762222894758
  H   2.60190572714540     -2.89270721511857     -1.09576446142061
  H   2.15686788695414     -1.77360740691560     -3.26158220259344
  H   7.60336727582582     -5.79079472592947      5.15380301464514
