27
Coordinates from ORCA-job 7707optt
  Br  1.23428164583353     -1.36797634604816      0.31802873689168
  C   2.53258320874986     -0.13207770304707     -0.28728223004589
  C   2.21633413684381      0.81624373855078     -1.17008390147780
  C   0.80612420224827      1.12027600143276     -1.65771294505777
  N   0.02960557774879      1.86114772503008     -0.64352916503041
  C   0.72682715919620      2.99821475970721     -0.19359085074235
  N   0.75087659933184      4.15781257647730     -0.78958408074199
  C   1.80963976634474      4.83541286893475     -0.23239735845088
  C   2.43235429464496      4.07537037229825      0.71818692778259
  C   3.80632651149075      4.10348747558564      1.30284020673417
  C   4.82455366888324      3.40661691614535      0.35199872477213
  C   4.31474340224523      2.04826441575695     -0.06891241990444
  S   3.41786235476584      2.02922962390234     -1.59473342612370
  N   4.42076111989377      1.04924079991016      0.70499912055444
  C   3.85761774640107     -0.20371690350033      0.37399809323149
  N   4.37849333166608     -1.30604429800704      0.69855997969137
  N   1.68493447786799      2.92247206919401      0.77425440712417
  H   0.27920665304912      0.19520925997353     -1.88102976982930
  H   0.84304387056866      1.72995287604003     -2.55943086541045
  H   -0.22611187315285      1.24236492517216      0.11791707017356
  H   2.08872603519186      5.82000944231003     -0.57114421945619
  H   3.82443362649866      3.59093789310663      2.26674515990751
  H   4.13334659488826      5.12974981769857      1.46709393229090
  H   5.77825097826914      3.27910680096832      0.86329339501371
  H   4.97086687464580      4.03312281269893     -0.52894230644616
  H   5.25996792051759     -1.14104377855492      1.18552811588631
  H   1.92535011536778      2.09361585826372      1.29592966866330
