29
Coordinates from ORCA-job 7709optt
  Br  2.18771379289995      1.11956495862482     -1.59007807797581
  C   2.83910621274552     -0.02706384957873     -0.22656270044205
  C   2.73118216527351     -1.41084017810571     -0.31922161048197
  C   1.92895106789506     -2.05831779134455     -1.43745917766046
  N   0.58694334863408     -2.24358256757633     -0.89323606131158
  C   0.42588459532349     -3.27088242527504     -0.16605212077651
  N   1.21881691523253     -4.42767717203078     -0.14407133335894
  C   2.08121071348338     -4.49718316265754      1.03228585978132
  C   1.25154873318538     -4.09304354854753      2.26667297303792
  C   -0.24294179429026     -3.90328959837534      2.02943025643827
  N   -1.15283864178879     -4.05405493660350      2.89518670781421
  N   -0.57296755012484     -3.35403696080402      0.78945722207190
  C   3.36559455636041     -3.67008712631148      0.81521630171891
  C   3.26774082637501     -2.15100587797599      0.76168720523963
  N   3.80616924071397     -1.56393919203490      1.83060207119492
  C   3.86631264401351     -0.23878312933714      1.89033590524277
  C   3.41482990642118      0.58171976465909      0.87710596538482
  H   2.43262446708593     -2.96961429058198     -1.77368174919532
  H   1.87857210626325     -1.39529566474122     -2.29496192284799
  H   1.75609520739316     -4.52011270427813     -0.99337173709372
  H   2.39387633054693     -5.53657214730820      1.14234101591223
  H   1.60723422821310     -3.12557031900727      2.63605908621785
  H   1.39048208424506     -4.81291330238341      3.07064408834741
  H   -0.76614543159220     -4.38964197688105      3.77296955717920
  H   -1.28630526177672     -2.63951731801847      0.78853420702913
  H   3.82214605962217     -4.03439931851644     -0.11137502974960
  H   4.06528830564220     -3.88727993615010      1.62213180141579
  H   4.30156198572765      0.18458739199949      2.78851404389498
  H   3.49131318627633      1.65683237914147      0.94689725297269
