26
Coordinates from ORCA-job 7711optt
  Br  0.94225350719177     -0.09179978554066      0.24943676458317
  C   2.82460137130941     -0.04133635042959      0.11344832435838
  C   3.51029430395803     -1.13616875208528     -0.40986352332751
  C   2.85009078698787     -2.40382785729396     -0.89260231562037
  N   3.08351089777404     -3.46665528842642      0.06511858172244
  C   4.32175042505163     -4.07346637321774      0.14666962548430
  N   4.51631659517828     -5.25545110190649      0.66649734071679
  C   5.87377711613784     -5.46116221744647      0.60728829215007
  C   6.49435175934237     -4.39490485533813      0.04443580817879
  N   5.48700877332922     -3.48359692942141     -0.25072594318189
  C   5.71125244066524     -2.23413399592503     -0.96475242438678
  C   4.90380160415476     -1.08071683161682     -0.43222576493825
  C   5.53657149130319      0.06413257974954      0.03303055409647
  N   4.87959051388887      1.11398800316266      0.49298456135090
  C   3.54924406627999      1.07464960979271      0.54298320471033
  C   2.97918649150574      2.34571405720550      1.10355866738524
  O   1.82105766557881      2.59373225911801      1.27270923685839
  H   3.23937014039937     -2.65070628841890     -1.88842939549432
  H   1.77904806989628     -2.26310865827726     -0.98648833666177
  H   2.33781280394025     -4.13503856471343      0.18025741463109
  H   6.31882853572992     -6.36913133695384      0.97796117478048
  H   7.52505770023136     -4.17887224742418     -0.17523701322607
  H   5.51363749387483     -2.37299644472692     -2.03178752341093
  H   6.77026784966259     -2.00185485971577     -0.86271171389409
  H   6.61976537651210      0.13225145561395      0.02807542075055
  H   3.78155222011619      3.06246077423597      1.35136898238459
