25
Coordinates from ORCA-job 7712optt
  Br  1.72777728003285     -0.71026063530359     -0.59154050381915
  C   3.49209565286301     -0.18226219607497     -0.20520639326234
  C   3.90702695024355      1.07267398753102     -0.02270778583493
  C   3.23513802550634      2.38503607494070     -0.05474471979994
  N   1.86981764785345      2.53016885432413     -0.23284949266496
  C   1.19749764680203      3.72337038526288     -0.25710819104874
  N   1.71296485694822      4.88567860244926     -0.19606069737562
  C   0.59488956792338      5.83042451584906     -0.22482771321239
  C   -0.63703632457799      5.00588858942260     -0.65333959033106
  N   -0.19969626013343      3.64608209845818     -0.32030869256724
  C   4.18522924247367      3.33816239643081      0.10943546616209
  C   5.48315955062139      2.69633523533350      0.27073625685333
  C   5.32646220751667      1.36123966350977      0.20626144183301
  S   6.53333021881056      0.12255314521597      0.36509189569599
  C   5.61707537204968     -1.34325045496268      0.11199097712316
  O   6.12468093702838     -2.41356740893929      0.15790257426252
  O   4.26002974067150     -1.28626477181613     -0.15859176382409
  H   1.30086995851179      1.70809484273337     -0.12713109907574
  H   0.80066253076565      6.65347774242994     -0.90803662002372
  H   0.45720282724371      6.25318990476585      0.77385632001015
  H   -0.82552412937085      5.10525683119389     -1.72561779987646
  H   -1.54007306271107      5.27430515283716     -0.10888304642356
  H   -0.56739252854994      2.90749185086802     -0.90375350126018
  H   3.99763399417184      4.39704731381147      0.12162268207855
  H   6.41417809730554      3.22112827972903      0.42280999638129
