25
Coordinates from ORCA-job 7715optt
  Br  1.27934753296264     -1.26450392821179     -1.24345188714327
  C   2.65070501389292     -0.18411195844528     -0.55798661454542
  C   2.53687971492956      0.50759794823660      0.59313444605722
  C   1.21647141305800      0.70361007144678      1.32174835473865
  N   0.33628101414169      1.67784932138528      0.60525596483771
  C   1.07133071690092      2.62155380183752     -0.12120955411041
  N   1.27345495138642      2.62908973690745     -1.41041506130153
  C   2.39061575888091      3.41763686110290     -1.61088506417033
  C   2.86558381942269      3.85599817910271     -0.41351277269510
  N   1.93995951069654      3.43946016276417      0.52517373836371
  O   4.09889517560796      4.23702623226472      0.00895604985758
  C   5.09140232352098      3.16580012926348     -0.04423415833210
  C   4.45895661224136      1.79816233857571     -0.01048359654175
  O   4.57004201241078      1.10972269071974     -1.16288379253983
  C   3.82538167690237     -0.03020448377788     -1.42577931428218
  O   4.14268060375280     -0.71794404709034     -2.34358937427099
  C   3.61810339779387      1.39120435845342      0.95185467791905
  H   1.41120363955215      1.07751320799618      2.32746732688199
  H   0.66609648701994     -0.23035809282188      1.40931686426826
  H   -0.26920773112076      1.18808098974375     -0.04357580886278
  H   2.82857694870723      3.54487958059517     -2.58673737568790
  H   2.01701376394575      3.57199728982677      1.51885601297216
  H   5.74389992342548      3.33090769738522      0.81160169817914
  H   5.66088699572145      3.26885606629852     -0.96724983318269
  H   3.58043872424630      1.93917584644103      1.88162907359084
