25
Coordinates from ORCA-job 7719optt
  Br  0.19472487110104      1.21415737330814    -11.71003306783101
  C   0.24499783016653      1.24036713951117     -9.84172749073963
  C   0.55150487207494      0.19214685584566     -9.05327430863945
  C   0.80130522237320     -1.17239408643226     -9.67281239851713
  N   -0.49158304509911     -1.89754227499727     -9.86566085486239
  C   -1.01028216908775     -1.87919363501652     -8.55424233925574
  N   -0.46743406119792     -2.46229703415991     -7.56857568018660
  C   -0.61467936403498     -1.47437042946439     -6.48926747220963
  C   -1.87154022648003     -0.70215072546689     -6.89431499910539
  O   -1.85059766120016     -0.85367226254153     -8.32577131559156
  C   0.68314188006497     -0.64578239400661     -6.59898287956497
  N   0.67084203984998      0.38726681429702     -7.66903351678008
  N   1.03796433813723      1.58608260815625     -7.14414884179719
  N   0.87042760139349      2.65448354402176     -7.74484351205678
  S   -0.19712940262139      2.71813561984293     -9.05782318407873
  O   -1.49650188372605      2.58312824296777     -8.47632343012004
  O   0.13879818981206      3.84848511348519     -9.84984210605635
  H   1.47509393732077     -1.74672703903113     -9.03370228239554
  H   1.25941400016418     -1.02093008269711    -10.64676868034531
  H   -0.27955248727301     -2.85111772053639    -10.14076577760290
  H   -0.67365963373037     -1.92317806660158     -5.49978192391809
  H   -1.85540275608641      0.36351040567932     -6.67158994899907
  H   -2.77933326162353     -1.16171265546959     -6.50249540727496
  H   1.51080814175964     -1.33935847568841     -6.74860534957567
  H   0.86167302794268     -0.07133683500564     -5.69361323249567
