21
Coordinates from ORCA-job 7720optt
  Br  11.08089872739851     -2.60995157662127     -3.08717512996720
  C   9.30096481974530     -2.07902195427404     -3.06482264298075
  C   8.45772640401783     -2.32898666858673     -2.07034477704080
  C   7.08696176177653     -1.82454661768690     -2.14590754692542
  N   6.31603229248378     -2.23263948204475     -1.04632651543018
  C   7.11811498430585     -2.88932873779439     -0.29619849512379
  N   6.90026576890426     -3.72250523514155      0.74247288235913
  C   7.94245003921083     -4.75217091802971      0.81299354857120
  C   8.86447980613844     -4.43883743252606     -0.37963284187376
  O   9.61131891693683     -5.18944599629872     -0.91010744408341
  C   8.58462927564676     -2.94895618131511     -0.71172001484683
  C   9.44159202721188     -2.16689033049838      0.17629315482889
  C   10.15548658380621     -1.54250257984151      0.90520560198405
  N   6.60621637290609     -1.14894998550382     -3.11397292036256
  O   7.48869297554740     -0.89725461109445     -4.15122650767145
  C   8.79037579764439     -1.30566086562664     -4.22198180764801
  O   9.43040752324476     -1.01937456103192     -5.18583218149290
  H   5.94910657057266     -3.94426828990587      0.99450010130469
  H   7.53385585387131     -5.75549037394167      0.69556838079043
  H   8.51637641531635     -4.70386847579771      1.74014898728679
  H   10.78804708331390     -0.97134912643875      1.54306616832190
