19
Coordinates from ORCA-job 7723optt
  Br  1.20578581147637      0.49433819430395      0.06437484552888
  C   3.08054845519952      0.43012089230835      0.06739802625615
  C   3.88243463159164      1.50075573028234      0.06963449356553
  C   3.62443687286428      2.98903612439410      0.07075980590737
  N   2.56021212661604      3.65941795855424      0.07120496728578
  C   4.99752769459694      3.54834853281896      0.07154855519285
  N   5.59115368809632      4.68693509838723      0.07206903156933
  C   6.95614579695405      4.27544636841958      0.07242624159250
  N   7.22837098515077      3.00041519784033      0.07217028987813
  C   5.96753589841230      2.45657180229723      0.07157155572883
  C   5.32531458142763      1.26045616826377      0.07069605940923
  C   5.86847017915089     -0.12966670158767      0.07022239934717
  O   7.04473428505958     -0.34794864609980      0.07141585893660
  N   4.92407389635932     -1.18794314263452      0.06826428385625
  C   3.67970177819213     -0.91775468231224      0.06700389946978
  C   7.98148289571450      5.27854676752931      0.07282978603398
  N   8.78939829381505      6.09055822494790      0.07331129946024
  H   1.72926945947839      3.06827005223480      0.07058011531561
  H   2.98140266984424     -1.75290393994787      0.06551848566580
