20
Coordinates from ORCA-job 7732optt
  Br  1.86311918290594      1.26744598658560     -0.00737403490488
  C   3.56453983863069      0.49660486682211     -0.00565219975209
  C   3.72205273480748     -0.84074413629580     -0.01143186964791
  C   5.08436413165436     -1.39510775662801     -0.01034825554956
  N   5.19365858814763     -2.68224876314134     -0.01606727481979
  C   3.87553883348226     -3.15195224050656     -0.02167679404762
  N   3.39865144945800     -4.32897131246403     -0.02841006070229
  C   1.96807513735423     -4.10726953303075     -0.03088963701633
  O   1.14491634986950     -4.95857945225759     -0.03708267869537
  C   1.68028771857818     -2.57948860506449     -0.02433574968083
  C   0.36773167469620     -2.07777046835698     -0.02489555794527
  C   -0.77896569168596     -1.72505281707890     -0.02637516729634
  C   2.89333254355505     -2.01789129848646     -0.01885800697423
  C   6.21673015029899     -0.44663184617576     -0.00263075610293
  N   7.44548758775866     -0.75523200818436     -0.00105328523046
  C   5.82123288507917      0.98219712141087      0.00352574739918
  N   4.61816574969832      1.40826871832047      0.00218751526185
  H   -1.79447621484332     -1.40674026039829     -0.02560202198444
  H   7.55458921705269     -1.77494156263781     -0.00595326798449
  H   6.63296813350189      1.70410536756809      0.00992335567382
