24
Coordinates from ORCA-job 7735optt
  Br  1.02091480010574     -0.10158482588213     -0.26423426863215
  C   2.89205622271620     -0.05116049033647     -0.10980099446766
  C   3.56818698484067      1.12073934796043     -0.09514683873416
  C   2.84396731271037      2.43816093718681     -0.16954796317522
  N   3.66569885917293      3.56209155055332      0.24123034508162
  C   4.99951260997973      3.63514320110452      0.09732829007620
  N   5.56916172131953      4.80672646135882      0.16899304829120
  C   6.91371515073359      4.92395154440601      0.01082596070476
  O   7.56663402059383      5.91320209796227      0.11938363235443
  O   7.62692284323931      3.75363296114539     -0.36163193642007
  C   7.02638319374413      2.57064337767924     -0.38618062877552
  C   5.72197471621934      2.40046239267321     -0.11339072844679
  C   5.01048017355584      1.12383637395915     -0.03378110680987
  C   5.63259717600420     -0.06779310434405      0.11024644547299
  N   4.93517313800796     -1.23442131662032      0.12574980630163
  C   3.55167989391529     -1.35427079158520     -0.01539081598445
  N   2.91174954238982     -2.45443083462957     -0.03997464846776
  H   1.96618616544134      2.40071107085180      0.47422002860881
  H   2.47706241858914      2.57907396995345     -1.19386512118860
  H   3.21094479864500      4.45823941747672      0.34293101487768
  H   7.70420086909529      1.76824031404832     -0.65151425684215
  H   6.70281690875396     -0.16381881360955      0.22778436929060
  H   5.44527108433137     -2.09520593434895      0.24843811007662
  H   3.52070939589534     -3.26416890696323      0.04832825680787
