23
Coordinates from ORCA-job 7739optt
  Br  1.77586375528213      1.22304959477910     -1.70139312220220
  C   3.12473538867830      0.41832397022443     -0.67891143025632
  C   3.32106717455180     -0.92140561250421     -0.66104924851285
  C   2.79763688161683     -2.27892893595850     -1.15766582718564
  N   3.77137911173528     -3.27471642134917     -0.59860449890605
  C   4.73498741976743     -2.55384567945785      0.13472268015426
  N   5.81476835619250     -2.68344584651169      0.86149071849384
  N   6.16854145522281     -1.41505984799746      1.29332567814098
  C   5.27846395346271     -0.56379287399099      0.81273808905618
  C   4.94743490786315      0.83837825781962      0.76038142091542
  N   3.93929934004540      1.25253039974255      0.05305596454607
  N   4.38221234480444     -1.27384021964850      0.09257286853647
  C   1.36083289347198     -2.48752829057290     -0.64413719642699
  O   0.44254145659562     -1.93533581782567     -1.19172074623039
  N   1.25789644935219     -3.28080339102948      0.46211782302685
  C   0.04558110507029     -3.51147233404519      1.11987038325346
  N   -0.12349446855946     -4.23502070296083      2.13572869879234
  H   2.74650452150051     -2.31747059220819     -2.24598070576205
  H   4.13825452142777     -3.93231689730945     -1.27215157968432
  H   5.52750431849243      1.57590040806996      1.30108676681665
  H   2.09867176392518     -3.74866511427308      0.77510579272112
  H   -0.78529805577067     -2.98443713405017      0.66063864328859
  H   0.74161540527136     -4.66909691894232      2.46077882742458
