23
Coordinates from ORCA-job 7744optt
  Br  1.22210232392577     -0.18471353585594     -0.22136378739256
  C   3.10658632946557     -0.19036727488882     -0.12165074399528
  C   3.83019816210528     -1.32881210945032      0.05632621763723
  C   3.20762826318257     -2.64566787515893      0.20483087898702
  N   3.81225116378350     -3.77028822280084      0.26881301839320
  C   5.18148725346883     -3.69041762255736      0.15595487711309
  N   5.96917649292445     -4.73368675077095      0.06501060133467
  N   7.19695209229766     -4.20652096776944     -0.06515959133722
  C   8.30687476067005     -5.05179858674291     -0.19132789533754
  O   9.41924471032178     -4.63678396515614     -0.30655939339664
  C   7.21715420521555     -2.83627036719981     -0.05810997920265
  C   5.90938486496208     -2.46333920168372      0.09029377975909
  N   5.22713172803746     -1.25033543672328      0.11546023949149
  C   5.92076449499733     -0.01465589689210      0.19883972414073
  N   7.14943418211272      0.13072247331637      0.49880397818959
  C   5.10308290412524      1.14166158370767     -0.11257623511405
  C   3.76917775970474      1.06494897425942     -0.25648450862999
  H   2.12647601255149     -2.65059194266026      0.27083652430205
  H   8.00403355620832     -6.10570057539002     -0.17029299516909
  H   8.15114796995387     -2.32228174934985     -0.19486094958604
  H   7.60522853166311     -0.72219542152462      0.79446762742735
  H   5.63555230181306      2.07943376870033     -0.17874290993448
  H   3.17992993650951      1.94866070259154     -0.45950847767995
