25
Coordinates from ORCA-job 7748optt
  Br  1.42554885977269     -1.84402041948784      0.37367843002688
  C   2.38302118138199     -0.25716591649582      0.07484966353881
  C   1.79690383153045      0.86449699316831     -0.39800840653736
  C   0.27693770617064      1.01371900369926     -0.55493850615431
  N   -0.22182196141356      2.39822939713425     -0.68209711322864
  C   0.49827659531128      3.31647884366371      0.05486353959773
  N   0.78763584197275      3.11374962928428      1.30816577045255
  O   1.95789225487001      3.85741440947459      1.47252277382135
  C   2.20264085858406      4.42805814616908      0.29115957116527
  C   3.64282396123424      4.64846475134554     -0.06759389205140
  N   4.33347475742863      3.33806426726505     -0.08221286565403
  C   3.70009008577077      2.11435418816692     -0.13844710767849
  N   4.33805607186108      1.05502372555969      0.43909237957111
  C   3.79969817070149     -0.25181128248704      0.43535462387752
  N   4.44251703343599     -1.28777397178140      0.78744109306733
  N   2.54321037992429      1.97965985672920     -0.68287280017373
  N   1.27152652465938      4.26977256705082     -0.57655232690286
  H   -0.18178174443943      0.54815460131381      0.31630438240197
  H   -0.07126771974788      0.45702594439835     -1.42579128539532
  H   -0.26500718543679      2.70425941425433     -1.64347064954819
  H   4.16292365125415      5.28032025471849      0.65074947678286
  H   3.67082142259196      5.11398552434660     -1.05049786510434
  H   5.22595732817783      3.34145257084606      0.38157965692312
  H   5.21241540734388      1.18273022454116      0.92580693642303
  H   5.40750668706008     -1.08464272287741      1.03691452077912
