22
Coordinates from ORCA-job 7754optt
  Br  1.04898205929936      0.05959389946515      0.12249903281047
  C   2.91602291595914      0.09716551944746      0.02912063256902
  C   3.61967552089168      1.23301593946678      0.00047582168936
  C   3.26781420856928      2.70376076851996     -0.02926637901086
  N   4.55141361479957      3.36765712869497      0.15431923934663
  C   5.61044648047775      2.47867823720122      0.02949167613961
  N   6.85081330604578      2.76990725764500     -0.01234482340592
  S   7.97495058663848      1.53273836035450     -0.09818348704923
  C   7.16664683351669     -0.05749373928644     -0.07487276676551
  N   7.77916033642193     -1.16560373974580     -0.09952063265667
  C   5.70094587747133     -0.00678745279084     -0.03999139339868
  O   5.01822143281740     -1.15883599289277     -0.05061854899235
  C   3.62500161140355     -1.20194136359524      0.01068731091154
  N   3.03062007068014     -2.30481744840301      0.03624976590681
  C   5.04361044857251      1.15706455371636     -0.00867541635665
  C   2.60408201900380      3.09079932436401     -1.35180253705280
  O   3.04150900178898      3.95520678273624     -2.05086084040990
  H   2.55521415189588      2.94615453259699      0.76880719763995
  H   4.65651807803030      4.28935686522119     -0.24694588037710
  H   8.79266759115132     -1.05734734517605     -0.12669973324287
  H   3.68804116810619     -3.08177169551565      0.01330149319918
  H   1.68864268645888      2.53049960797595     -1.60616973149403
