22
Coordinates from ORCA-job 7759optt
  Br  1.21105195443843     -0.36478978624794      0.36986979707202
  C   3.04255106415486     -0.01520303938224      0.31546530393577
  C   3.54838281121446      1.22840281087703      0.25555967480287
  C   3.16434089492199      2.71096120607379     -0.00900913616263
  N   4.41749528504851      3.41173899725268     -0.48271081832637
  C   5.33647478927831      2.54213790219234     -0.35773556851875
  O   6.64340202041541      2.45886530153246     -0.73379678968254
  C   7.02701561427647      1.05631160053831     -0.67640611147044
  C   8.26867622725498      0.87011148377503      0.18080298919957
  O   8.71354988814156     -0.22339374842918      0.36858210622086
  C   5.80963632184326      0.33018070910975     -0.10382203462372
  N   5.34623140815274     -0.93860557639182     -0.02176798907806
  C   3.97134005219470     -1.20100385012385      0.29792910695320
  N   3.52303592451399     -2.36554026592617      0.50581580597160
  C   4.93968636817937      1.29180740798762      0.15006860631976
  C   2.12236068892805      2.83029499608727     -1.03375889632462
  N   1.30849214965250      2.91083291483311     -1.83471699621043
  H   2.80186211995874      3.19236962613086      0.90293777820458
  H   7.25061383035768      0.72151992875068     -1.69355223520561
  H   8.70423314125152      1.78834297255780      0.61056656652058
  H   5.95233776953657     -1.73828023167631     -0.13300065221789
  H   4.23422967628581     -3.09006135952125      0.44567949262024
