23
Coordinates from ORCA-job 7764optt
  Br  1.59903737256315     -1.69279992351909     -0.50055476739953
  C   3.36508970407061     -1.09023964186494     -0.54879802034223
  C   4.11788676472850     -0.84233848900202      0.51937828709071
  C   5.47767292558213     -0.28423575283832      0.30554002113225
  N   6.16981309463796      0.34630476810719      1.15707992238613
  C   6.04124747464979     -0.76219771849225     -0.97764737810268
  Br  7.87349981710014     -1.13079858326240     -1.06281681229478
  C   5.20389914389299     -1.27649103134584     -1.87770091347442
  O   3.86116540749336     -1.03746020494759     -1.80224498079326
  O   5.50773836580605     -2.28372542132719     -2.73483820762045
  C   5.38368924049744     -3.48183180607324     -2.01046288576133
  N   4.78538823532198     -3.43202463497920     -0.92891952577803
  C   4.67806471213060     -4.30288654926121      0.20072203457927
  C   4.97325697649991     -3.48175014739974      1.46475416993874
  O   3.85961822658324     -2.73558165638789      1.98359805427899
  C   3.73107387938342     -1.38657683069652      1.86038003981669
  O   3.29922034848543     -0.73978113156426      2.76157661000194
  H   5.64551776651522      0.50000326915740      2.01953314878240
  H   5.88334736653191     -4.29620272104291     -2.53262864133319
  H   3.65802693096581     -4.68764114187278      0.26563758430346
  H   5.36939219522791     -5.15232636878316      0.16678678662113
  H   5.23692006689781     -4.16095036069819      2.27488147131340
  H   5.82343398443454     -2.82046792190580      1.28174400265479
