27
Coordinates from ORCA-job 7770optt
  Br  1.35377906476244      0.34296572731669     -2.36167371787965
  C   2.62278407139008      0.45755874356789     -0.96740041210315
  C   3.25409554195025     -0.66381276520427     -0.44798700223728
  C   4.16012527007098     -0.45612737733528      0.60012124464713
  N   4.42889905199916      0.73449674546109      1.11560184709907
  C   3.79704476237423      1.79028547237976      0.60893162413098
  C   2.89019199469606      1.70881370918623     -0.43188511054712
  C   4.88454592545912     -1.63352298336193      1.21224793078841
  C   3.94590374294351     -2.52247217318022      2.04159747038333
  C   3.55347204678793     -3.61013806735674      1.02744827546330
  C   4.90470302153998     -3.79310483382530      0.32355785863372
  O   5.38752129571467     -2.47021639430895      0.17189484662295
  C   2.50327026102975     -3.11250104720256      0.00514575547883
  C   3.00329289790014     -2.05714283116344     -0.97221815500964
  O   3.13020689426001     -2.30751200766210     -2.13971693564760
  C   3.07793888880666     -4.82792803647453      1.67211885471671
  C   2.68906875005142     -5.83185451537016      2.19691806736467
  H   4.02855656585590      2.75119537688976      1.05386549568419
  H   2.40105981817844      2.59155031201493     -0.81698044498090
  H   5.70866164781086     -1.24075225644439      1.80725788643401
  H   3.08989636752712     -1.98200068822495      2.44251451442243
  H   4.48642995172379     -2.98192652467788      2.86855166109369
  H   4.81262132634991     -4.23949612171029     -0.66676256493516
  H   5.57847112490931     -4.39513724436492      0.94002074521530
  H   1.64139802563017     -2.71279731774479      0.54612003530239
  H   2.17562635223403     -3.95665340291757     -0.60058498230115
  H   2.34643533804404     -6.72476949828606      2.66329521216052
