26
Coordinates from ORCA-job 7777optt
  Br  4.84712936426171     -2.61650947948155     -0.46969784452860
  C   4.15168308854859     -1.36887374758433     -1.75415038247643
  C   3.75656042041266     -0.11546533099976     -1.32954223518129
  C   4.86930473231818      0.63246279244925     -0.61654245424488
  N   5.82722575051220      0.81465592020805     -1.73109097200327
  C   6.18409493454507     -0.35809086583005     -2.51365248064362
  C   4.94965018533712     -1.19815583090596     -2.97795000534280
  C   4.51358444675296     -1.26406583352893     -4.23662149711023
  N   3.22013629022038     -1.67951492494463     -4.61014946416209
  C   2.78973660534784     -0.54061045405177     -5.28359836341477
  N   3.73250610271306      0.14767703504610     -5.78623725415097
  N   4.91877473532768     -0.55525940476421     -5.38923465290555
  H   5.66598624929470      0.11061466193252     -5.25744829553373
  O   1.49677704066059     -0.14924877746502     -5.24055491118181
  C   1.14357254864458      0.53466545885028     -4.05246279172489
  O   0.30587675372777      1.36368526873364     -4.10609070499982
  C   1.86758703114323      0.02569219875466     -2.84924674505316
  C   2.90419913725529      0.62588730094882     -2.25183289736229
  H   5.32648640894394      0.04645203397231      0.17517284205745
  H   4.58835309484056      1.61124952343126     -0.23426113820056
  H   5.52338048119776      1.56632063751367     -2.33744370582113
  H   6.82754267627818     -1.00157377467688     -1.91128686853439
  H   6.76219487278881     -0.02734731891804     -3.37694899832808
  H   2.63573608720110     -2.08233679569023     -3.89723263686677
  H   1.58902189035552     -0.97352140089796     -2.53082214161114
  H   3.13689907137045      1.66121110789877     -2.48907340067512
