21
Coordinates from ORCA-job 7785optt
  Br  1.06754126888484     -0.41474433703909      0.08985340250886
  C   2.92771210777156     -0.23283008629384     -0.03032036778091
  C   3.56325341675743      1.00718207614511     -0.09725485523802
  C   4.94158373390963      1.03840367310520     -0.31819810371741
  N   5.68893787276780     -0.05803923703314     -0.38315593577249
  C   5.09478565327530     -1.22590668531014     -0.25495634095206
  C   3.71195033388156     -1.38616817651601     -0.10534055442396
  C   3.16202226039232     -2.69841354276334     -0.05011856000190
  C   2.72997303966038     -3.81478177516035     -0.00932710196637
  C   5.69747229313229      2.31867708361845     -0.58654574571673
  O   6.60829166944528      2.35297392271414     -1.36134095360547
  C   5.25913526109084      3.55595833622493      0.12907429894595
  O   4.73643677779564      3.37351623122505      1.44005492690666
  C   3.83937143075892      3.73767662930346      0.44354048423586
  S   2.61219075027304      2.52089985373610     -0.00192251294577
  O   2.14177161094450      2.85240894625539     -1.31187032304501
  O   1.71101965333416      2.44187675505065      1.10362233176273
  H   5.72352032507374     -2.10833228182153     -0.28717869820621
  H   2.33424611062628     -4.80220505122911      0.02658031077980
  H   5.89158777087441      4.42282513774785     -0.02031466929962
  H   3.38719665935001      4.72502252804021      0.48911896753208
