30
Coordinates from ORCA-job 7789optt
  Br  5.86713977422647      2.29532201996083     -5.09657239106748
  C   6.42115086671700      2.76162914938651     -3.35030271921941
  C   6.57983523956651      4.03849026380173     -2.93967358956863
  C   6.70505582895633      4.16398737733988     -1.44028057782667
  N   7.75734671501973      3.26621709790929     -0.99362261677221
  C   7.79978590452726      2.02144122828053     -1.53029713558106
  C   6.90185255110668      1.68741125639169     -2.51241017236693
  C   8.94179529508906      1.17517571965658     -1.16514410823849
  C   10.21491050819852      1.58896746599962     -1.09969006886210
  N   10.72212512986030      2.85272652287005     -1.41437711815621
  C   10.22888811243446      3.73349570407316     -2.36039481299483
  C   10.63512300754556      5.01539863463336     -2.45173158775969
  C   10.21138333374138      6.07566803298845     -3.37137819718503
  C   9.17395378939598      6.15392390249919     -4.21495049371452
  C   8.23911925043830      5.00890997890276     -4.41453239526221
  N   8.55338389763768      3.95941655988714     -5.04970605181402
  N   7.01135286354050      5.11200340668269     -3.74240421582103
  H   6.95361878952039      5.17953949947590     -1.13539197230021
  H   5.77173572335505      3.86200412798099     -0.95478969046708
  H   8.58583492251795      3.64248089311018     -0.56276424689153
  H   6.85096016146558      0.67196428062958     -2.87314769196725
  H   8.75252506804520      0.12305702706160     -0.99983631461400
  H   10.97643038585996      0.88784650471773     -0.78138817030338
  H   11.58096023246113      3.11587460252538     -0.95762253266998
  H   9.49318928313852      3.29883627388773     -3.02558771042854
  H   11.38809598536103      5.33365689289717     -1.73538391713486
  H   10.84165318521744      6.95794071567314     -3.31981807796934
  H   9.02041445168044      7.05685666844487     -4.79419939244993
  H   9.49737745354355      4.05285995830887     -5.41781596869401
  H   6.88700228983189      6.01589823402336     -3.31178606189936
