26
Coordinates from ORCA-job 7793optt
  Br  7.91588797338647      1.39015229834087     -2.94734095553763
  C   6.75389476899659     -0.11032855362640     -2.82421163891543
  C   6.35252812825041     -0.81469608966850     -3.94304383540571
  C   5.25675146747653     -1.75822218700510     -3.56675550538814
  N   5.82746883295097     -2.66830325106215     -2.53090889914107
  C   6.62104417688264     -2.09512236577562     -1.61263871847581
  C   6.63910778374946     -0.69291210491373     -1.54141836502883
  C   7.80002745360756     -2.91431426482923     -1.26910813772114
  C   8.89640402275472     -2.36165165564610     -1.82631460351698
  N   9.90461128434414     -2.97999203626377     -2.53521400563500
  C   10.37148965977171     -2.18583812236901     -3.61457395423937
  O   10.65143235557754     -1.02668452973697     -3.46959587874091
  N   10.48604029347524     -2.90701802803885     -4.78866974637625
  C   9.94412239669889     -2.61014764456814     -5.89380764919037
  O   9.02209534568440     -1.70963645642460     -6.22545992090282
  C   8.34974937024682     -0.90058961983906     -5.28259826940416
  N   7.20598028596247     -1.27092479541875     -4.94146671930475
  H   4.41027346760848     -1.23927186751602     -3.11826100518300
  H   4.93212286016365     -2.36901395531711     -4.40438671340045
  H   6.13724942749898     -3.56911932561357     -2.87182329763469
  H   7.09537422473077     -0.20706628405632     -0.69299768012243
  H   7.68659987153180     -3.98988259828858     -1.18541190598335
  H   8.95672347819249     -1.28656057438319     -1.93061081253492
  H   9.77624469825283     -3.95625773452450     -2.76355357849395
  H   10.22302470732603     -3.17877623616134     -6.77618731805842
  H   8.92775166487829     -0.02882201729422     -5.00164088566434
