24
Coordinates from ORCA-job 7797optt
  Br  1.03035643259945     -0.33305542693669     -0.15048230852643
  C   2.89652026976662     -0.12477234981767      0.03546369919382
  C   3.48490768660213      1.12453244922633      0.21622327864091
  C   4.88619658231667      1.16097852969088      0.26721695412397
  N   5.64578553168498      0.07465679225826      0.19086589518343
  C   5.05559100270662     -1.10371078412560      0.03729061237050
  C   3.68480155130615     -1.25841858852906     -0.05758270489796
  C   5.67949677542731      2.42594960060139      0.49216702013067
  C   5.49685165193272      3.03241348890564      1.88368919685822
  O   4.86238101865727      2.49439994407839      2.73937883182212
  S   5.43034644280522      3.70603514591643     -0.74280400645984
  O   5.37103293433331      3.07539870778443     -2.02352072931336
  O   6.35244169958302      4.76719315812326     -0.48193786179745
  N   3.96058048323560      4.27743403741904     -0.29026462863965
  C   2.77915070569772      3.48927454785590     -0.63505228917808
  C   2.61236375981958      2.35033012145593      0.36799411238410
  O   1.78316119889363      2.41069736035029      1.22936662401178
  H   5.70875538232639     -1.96684553152481     -0.01709804491320
  H   3.24069015678135     -2.23262098036138     -0.20134588205182
  H   6.73736769700908      2.17175429687705      0.37319037654455
  H   6.01060941349363      3.99561337658580      2.03934476573909
  H   3.89931686995529      5.27966677936325     -0.41734061611762
  H   2.84555447094042      3.09772713431293     -1.65420252452437
  H   1.90574028212574      4.12836819048998     -0.53555977058338
