23
Coordinates from ORCA-job 7799optt
  Br  0.96459253258046     -0.18270364245958      0.28399411211512
  C   2.81552130949874     -0.05348714360085      0.04963806982445
  C   3.44014932047734      1.15892522868887     -0.09952661570735
  C   4.88687151805778      1.17393979763448     -0.29166437522074
  N   5.56267226349851     -0.00932048706543     -0.30500474281408
  C   4.94940801144114     -1.18528583804596     -0.14953171150370
  C   3.58205163526961     -1.24882738655745      0.02960270815903
  C   2.99036921951023     -2.53914149452706      0.19063029222636
  N   2.54971170682902     -3.59120929296618      0.31772580064393
  C   5.32970872332410      2.46829172479473     -0.43103748108959
  C   4.18081763317744      3.28582590700186     -0.32763615240171
  C   4.15429387952816      4.78440256501329     -0.41395262641345
  C   5.48459934767600      5.36022437284607     -0.59385097275869
  N   6.53903177682369      5.78537101108177     -0.73420628000969
  C   3.03058926604828      2.52435354091104     -0.12743630462395
  C   1.73737328996852      3.08147861593190      0.02455037638508
  C   0.68015818727026      3.63962702189214      0.14574117498008
  H   6.56407726912343      0.00740568715166     -0.43708339418588
  H   5.56341287477895     -2.07305560408414     -0.16816861608238
  H   6.34088310582025      2.81201111239666     -0.58500181309398
  H   3.70744175771335      5.20428191779249      0.49082137149398
  H   3.51800261516837      5.10136802058295     -1.24442957604002
  H   -0.26873724358368      4.10652436558670      0.25882675611719
