25
Coordinates from ORCA-job 7801optt
  Br  2.69925347702001      0.86813816989317     -0.17961862547335
  C   4.27694163259660      0.03844585712313     -0.81857137447954
  C   4.24809935508654     -1.12538865167937     -1.52566999635207
  C   5.51296496660343     -1.59723019620779     -2.21991784054332
  N   6.61411910295965     -1.61166228322712     -1.28011145765588
  C   6.80555349639616     -0.28269912817974     -0.71596824509740
  C   5.53539266206184      0.25900283184257     -0.09485758958739
  C   5.29916757892668      0.02390804658939      1.22743836920528
  N   5.76992748196956     -1.27010553456262      1.56735937350590
  C   4.81280728599944     -2.05398596883570      1.33124240423717
  O   4.99830147271583     -3.39250054806525      1.13171310481442
  C   4.45604240849132     -3.90144984334193     -0.01745007930997
  N   3.76956320270412     -3.42737290084079     -0.95142456605873
  C   3.20779920561751     -2.15216139369081     -1.28085140700692
  N   1.96015512871414     -1.97782011940490     -1.33495336581179
  C   4.80032123209802     -5.31842554644086     -0.07526352454298
  N   5.06234655003816     -6.43079168776882     -0.13527943843226
  H   5.36152809715396     -2.59819272565670     -2.62029268907767
  H   5.68716500282117     -0.92505616316197     -3.07274539747001
  H   7.46769500978388     -1.93250025017625     -1.72044898499832
  H   7.11924026794706      0.44814996489605     -1.47688610557677
  H   7.57257773479373     -0.32664367567630      0.05429986511883
  H   4.44004371954977      0.42425896774145      1.75132464421077
  H   3.77553704853521     -1.74512447806465      1.18021378995454
  H   1.46145687941618     -2.82779274310417     -1.07328086357253
