27
Coordinates from ORCA-job 7803optt
  Br  1.25458636926087     -0.09756176103385      0.17499874252999
  C   3.13201375883171     -0.07057869614460     -0.01833335204615
  C   3.78955747120275      1.06620077937206     -0.46469307314776
  C   5.18580557478833      0.99714934383359     -0.54851288859240
  N   5.89879737301613     -0.07132087482433     -0.22021824636858
  C   5.23597468851265     -1.15140362686047      0.18230288235103
  C   3.85653677936489     -1.20349979277034      0.30673490770586
  C   5.90643123060956      2.25171959094841     -0.95171499460405
  N   6.00713573243070      2.68609099992448     -2.13053055776267
  N   6.34056785303558      3.01613305917347      0.14991310554027
  C   5.46125224624464      4.13822868095763      0.48136016085629
  C   4.03649036875323      3.70339125414886      0.87325221666734
  N   3.20757551344519      3.46243650387123     -0.29025059386284
  C   3.09962877592052      2.33536683194211     -0.84614330929163
  N   2.24994639990354      2.27801004742035     -1.96310191621652
  C   2.24114729480349      1.35098038813881     -2.96889725110633
  O   2.95343667353975      0.38354576673216     -3.04850880204838
  H   5.83545794743144     -2.01933943306453      0.43183645967104
  H   3.36202116255592     -2.09909086309165      0.65353983932109
  H   5.57899648003972      2.03566585887684     -2.78975174551328
  H   6.45936462983065      2.41889690352470      0.96011385945940
  H   5.42241514722701      4.80862932302828     -0.37621288830340
  H   5.91262021689738      4.67446588999789      1.31563209243364
  H   3.56514761028318      4.51161415290740      1.43326156966794
  H   4.09905599537315      2.82925323231572      1.53363243141649
  H   1.69337283264640      3.11204763539445     -2.08612370564147
  H   1.48266387405156      1.59196880528131     -3.72958494311490
