25
Coordinates from ORCA-job 7804optt
  Br  1.20643229775207      0.05791895646669     -1.17056027238412
  C   3.01466006750314      0.05148438696391     -0.65275458714164
  C   3.64981795474001      1.19926325027185     -0.17847809559867
  C   5.01934046970801      1.10950667691986      0.06531753084133
  N   5.71421966238820     -0.01931962629571     -0.03287680506103
  C   5.07671993928430     -1.11040198882109     -0.42340673322497
  C   3.73369362691508     -1.12297661809546     -0.77525518438746
  C   5.82815229755200      2.33493250055319      0.37157344721538
  N   7.05911854583779      2.35819373680869      0.59787075725752
  O   5.15611067630998      3.51275032926704      0.26523443647007
  C   3.84246826212353      3.54723938073516      0.77844861285437
  C   3.20216196850676      4.84523951499906      0.32458130252222
  C   2.79132397708129      4.51701763447321     -1.10718852105949
  O   2.52588639158256      3.10327649875759     -1.12815372777519
  C   2.93745775434062      2.50765793938356      0.07881405268799
  C   1.77670283272335      2.30513074045057      0.98836182833101
  N   0.92673037973660      2.22738964848855      1.75262229101495
  H   5.66271458245470     -2.02065761306048     -0.47835921327409
  H   3.26130252286141     -2.02667482509044     -1.13212021073385
  H   7.41900219003450      1.40454037981732      0.56423738500275
  H   3.85505227992060      3.40894723925978      1.86133350817856
  H   3.90611115565894      5.67131879213663      0.39087157596839
  H   2.33289656245494      5.05915321592641      0.94600189821303
  H   3.59579058202096      4.72028831517812     -1.81461123247395
  H   1.88913302050861      5.03778153450595     -1.42250404344310
