24
Coordinates from ORCA-job 7805optt
  Br  1.14430568700726     -0.31172220417111     -0.03717230432032
  C   3.01771233579039     -0.11222524808229      0.01666860506849
  C   3.60891956810353      1.13610041782653      0.00552176310622
  C   4.98966743094921      1.19297974042587     -0.02490349061694
  N   5.81768118120767      0.16474019480459     -0.00358551080935
  C   5.23222509450185     -1.02860055303735      0.04033757163327
  C   3.85015468214675     -1.21989287572943      0.04489669017525
  C   5.39698014460609      2.61656353716511     -0.11158739807238
  N   6.52315871681790      3.15497257104667     -0.16781217648860
  O   4.24576703691008      3.35838255341957     -0.12127787388766
  C   3.07598797123162      2.52705409574988     -0.03762786413472
  C   2.21597326578564      3.01788902981186      1.13165491751718
  C   1.52054002109177      4.28176684438391      0.60098807848448
  C   1.22626464853448      3.97147508240689     -0.84801618479173
  O   0.39491150693188      4.43562805311379     -1.56478803707175
  C   2.21683844099713      2.85300543419192     -1.28075264919197
  O   2.28667978144556      2.34527605312012     -2.35245207663603
  H   5.88789338392957     -1.89111132198698      0.06160513863217
  H   3.43894529355042     -2.21909238237146      0.06020037173374
  H   7.23938544176694      2.43002200160021     -0.14703117981439
  H   2.83909652787587      3.20179237799704      2.00451742093519
  H   1.47837064428944      2.25369711812583      1.38042383779682
  H   2.21462588871554      5.12740307676496      0.61876740395724
  H   0.61891530581338      4.56489640342387      1.13842494679580
