25
Coordinates from ORCA-job 7807optt
  Br  5.32210208033601      4.32038896674944     -1.95747983300668
  C   5.53241977623452      3.28820195326645     -0.38801551348951
  C   5.47093075889887      3.85779303188662      0.82954187617741
  C   5.62485921087399      2.90010965202512      1.97206106642700
  N   6.82397405068232      2.07032171008359      1.70543128161634
  C   7.02036358192877      1.64317483501923      0.44603130430945
  C   6.12699768115790      1.98420840721430     -0.54313776934242
  C   8.45652078907536      1.33975892553930      0.00283330614518
  O   8.85749221698322      0.24135701820191     -0.27759109273995
  C   9.22982570336218      2.59219212380011     -0.23126580080786
  C   8.62960467393624      3.75138201863375      0.09155310607014
  N   8.82085915345444      5.06922055986902     -0.18635583258463
  C   7.77995115449464      5.96539852688130      0.08246220249183
  N   7.69001984342101      7.04579402452480     -0.55446950716098
  C   6.88560196191721      5.61310547047192      1.28740368962990
  O   7.30080651649931      5.74721595514815      2.39276049690155
  O   5.58116175417346      5.24063825958682      1.04495202737105
  H   5.74760866394215      3.41354814477962      2.92247218515904
  H   4.76722080120818      2.22445187212561      2.02325970532558
  H   7.61932113078335      2.14542639553848      2.32393479463722
  H   6.26050105616685      1.58642583997568     -1.53726460010192
  H   10.15620559164818      2.49545002117379     -0.78122611021064
  H   7.74798649535827      3.65749992629983      0.68891683616671
  H   9.49149525160143      5.38519084281221     -0.87397407102628
  H   6.90317010186202      7.61374551839290     -0.25083374795755
