26
Coordinates from ORCA-job 7815optt
  Br  2.11095666175845      2.34919675626809     -0.87379691772069
  C   3.51128007687448      1.11047435700489     -1.06791589619418
  C   3.60819756648406      0.21767782334271     -2.06082573455321
  C   4.89125860908474     -0.56954049022210     -2.18539573475030
  N   6.02985814102873      0.16517538181275     -1.66118265802802
  C   5.84650729518581      0.55781478120048     -0.26846521125882
  C   4.37879007319231      0.74505284672256      0.08122333928532
  N   3.98104310585799      0.37903388564173      1.23089000951278
  C   2.67028741400448      0.17024644794093      1.64836445775630
  C   2.38376665811665      0.60874633085108      3.04551686988895
  O   1.29057251825396      0.59714257408434      3.54235664307232
  C   1.71818143329080     -0.52787266947868      0.99933703505606
  N   1.91820995990356     -0.89359261458040     -0.32959913762720
  C   1.04633787033813     -0.54589747191915     -1.17522765146683
  C   1.37204790453595     -0.45252379595569     -2.63080773373644
  N   0.56833517749654     -0.60643050848869     -3.57999572412052
  O   2.66153777694179     -0.10735576661997     -2.97592550275751
  H   4.78648524803143     -1.52230876289871     -1.65425769770348
  H   5.04739073343961     -0.79958531768730     -3.23964156134471
  H   6.17811683511997      0.98526637681456     -2.23544920722089
  H   6.39181575934659      1.48435101890959     -0.08114347566542
  H   6.24097047511112     -0.20621550002479      0.40277024216039
  H   3.27375340625998      0.95239207623610      3.60112694795242
  H   0.76993374992904     -0.71002800437246      1.49797659149067
  H   0.06878475891735     -0.13597389286212     -0.90080624612685
  H   -0.34941920850357     -0.87524586171976     -3.23312604590014
