25
Coordinates from ORCA-job 7817optt
  Br  2.93211757051820     -0.41259693609559     -1.30468243585751
  C   2.44653352135805      0.31627301594626      0.39912246763957
  C   3.27725390692817      0.03079661376208      1.45474714365613
  C   4.74823271919057      0.27952345972483      1.24507606017833
  N   4.66304264109501      1.75867513187310      1.11663834003847
  C   3.74810529991781      2.36393000791583      0.14853666079003
  C   2.29669409505980      1.81732270668869      0.33187067126305
  N   1.33398203213600      2.60062195374224      0.51502842668862
  C   0.02785697973294      2.16990758237128      0.80287228717450
  N   -0.54498084026315      2.22467039391332      1.92641091627443
  C   0.12839656165789      2.67295429474153      3.09245767344230
  O   -0.22362919978109      3.66357263911582      3.67084196524789
  C   1.34042160864658      1.90352908602340      3.47547037335141
  C   1.62871032731252      0.78473123696086      2.83272085578883
  O   2.90315453275582      0.29965566320964      2.72735774457731
  C   5.06565968459401      2.50891504719319      2.20430416154735
  O   5.65309969801008      2.07339363945014      3.15648484329566
  H   5.13061910476914     -0.16880729527506      0.33511051760645
  H   5.37207658025569      0.05640784923421      2.10494691107405
  H   4.08247059176261      2.15228050627365     -0.86683353953497
  H   3.73604811399417      3.44021146896931      0.30374491639034
  H   -0.53502144771893      1.82642553022068     -0.06515144278044
  H   2.06873610582861      2.42520363761665      4.08287487357838
  H   0.91255211606068      0.25507263326331      2.21571506598661
  H   4.81186769617876      3.57433013316063      2.09633454258321
