22
Coordinates from ORCA-job 7826optt
  Br  1.14030713800730      1.02596117245971     -2.17761286746849
  C   2.42755129664281      0.90909223823382     -0.81540996898085
  C   3.54160134311551      1.72476118772055     -0.77917297552657
  C   4.57015982985445      1.35147207979517      0.09608111188362
  N   4.46932899710439      0.36866142198000      0.97850276783235
  C   3.26562924108951     -0.17901180419146      1.14001351652338
  C   2.20865691342427      0.11285351748322      0.29829414205378
  O   0.90526227185764     -0.14355327264007      0.66284162603610
  C   0.13102516740599      0.98017342128422      0.73010030040783
  O   -1.04816687117383      0.94022643405687      0.71279740666157
  O   0.90271410084465      2.10031850212326      0.86166397880435
  C   0.52317188128529      3.25534796772221      0.19244544616372
  C   -0.81103030716878      3.80928254183149      0.58629754406524
  O   -1.34546367905739      4.72108552133089      0.01953927316924
  C   1.28523150532892      3.95202071484395     -0.67335763034294
  N   2.59185071665902      3.97416798727889     -1.15319295723824
  C   3.52694292365694      3.11827464029443     -1.25581639836843
  H   5.49314941803901      1.92281452558109      0.10106885297409
  H   3.11584618647462     -0.85042846768295      1.97777293984280
  H   -1.26337228012049      3.32288417793688      1.46415441252738
  H   0.73495895351265      4.82224199035041     -1.01975243440866
  H   4.48564525321751      3.51335350220740     -1.59425808661129
