22
Coordinates from ORCA-job 7839optt
  Br  1.17580284203047     -0.02656893948988     -0.07263889186972
  C   3.04823150649967      0.01566121323260     -0.07289623188603
  C   3.71269501385764      1.19020379083545     -0.07297172381315
  C   3.28863983779431      2.57943521759919     -0.07299184856221
  N   4.30813017029597      3.37993910168945     -0.07308164104454
  C   5.46321794833016      2.58668227099046     -0.07311851883188
  C   5.16780258899583      1.25844262937004     -0.07306729854197
  C   5.90573840316330      0.03062614368948     -0.07303549159059
  C   7.23964409875979     -0.23417026712359     -0.07296999334461
  C   7.49070788029930     -1.67493504758542     -0.07297760148336
  N   8.56150060466685     -2.34635608297722     -0.07291479280412
  C   6.11238257278646     -2.34283350778951     -0.07297397393300
  O   5.88618610975971     -3.51466834535677     -0.07308231654703
  C   5.13592524756374     -1.20978227208328     -0.07303848164176
  C   3.78078061643182     -1.26066310093164     -0.07300133077855
  C   3.07110956214010     -2.49316047774559     -0.07308618816093
  C   2.45435586964031     -3.52009706699503     -0.07397217879982
  H   2.26796268506535      2.93528250754280     -0.07295846573361
  H   6.43277965898552      3.06167078835750     -0.07318800735564
  H   8.02577390154470      0.50865078725144     -0.07293258452815
  H   9.38201114146464     -1.73784327684909     -0.07286299419708
  H   1.92162173992427     -4.44151606563138     -0.07423944455226
