22
Coordinates from ORCA-job 7842optt
  Br  2.33737241109698     -0.91171494063076     -1.53241911164944
  C   3.92447700510178     -0.40020883213456     -0.69714852421698
  C   4.23968061092123      0.91164389516869     -0.46299254548374
  C   3.51438477957170      2.11957084967437     -0.76287679288727
  N   4.17250000075511      3.17553243313375     -0.38120018305160
  C   5.36708799841457      2.74439404444980      0.19377052894067
  C   5.47611785658234      1.39140387137392      0.17998183335047
  C   6.40928938446404      0.36687777316431      0.59358845276045
  C   7.62314964349632      0.10498186583016      1.18551918614197
  O   7.88868760669076     -1.23734761558434      1.24315703574718
  C   6.83098872925701     -1.86292857208033      0.67937463859288
  C   5.95692245363737     -0.92389170732628      0.29527407352661
  N   4.80550180885683     -1.36881762711360     -0.30893981122400
  C   4.91442939914014     -2.79725294978971     -0.33148760988402
  N   4.03776500252698     -3.55663673750311     -0.79253824062451
  C   6.30099475127913     -3.16151055257434      0.32308309865751
  N   6.77562845406563     -4.31961337833344      0.46498548346413
  H   2.54670133800799      2.18258412432019     -1.24046437110988
  H   6.06959832172508      3.46591062675835      0.58102661765697
  H   8.38884373828846      0.73477535222269      1.60243127191684
  H   4.30741247247712     -4.53622165879742     -0.70897270954286
  H   6.15546623364341     -5.04353026422833      0.10084767891862
