21
Coordinates from ORCA-job 7843optt
  Br  0.80475490713635      0.09294295855852     -0.01325163511401
  C   2.68314630089228      0.02129423044104     -0.01100626305574
  C   3.44352756660742      1.13090847304616     -0.00958958045071
  C   3.06298130858534      2.52134238259570     -0.00866010384975
  N   4.11000420651060      3.28993852143002     -0.00663989005901
  C   5.23486291928429      2.47077843419158     -0.00645186639689
  C   4.90828823166948      1.14357181781280     -0.00826290677668
  C   5.68141975486736     -0.07277893453952     -0.00889911935828
  C   5.03800635323569     -1.32230877039037     -0.00971118670657
  S   3.30105029550994     -1.57148408748245     -0.01100903934953
  C   5.78181393965526     -2.50341849603655     -0.00981389540995
  N   7.10137731320904     -2.53287081360337     -0.00938014887104
  C   7.73214326350913     -1.36284249172084     -0.00898351558051
  C   7.09421292421028     -0.12572513983798     -0.00874403746301
  C   7.92284233488813      1.03659241614355     -0.00862763578864
  C   8.68859702301050      1.95916033390610     -0.00849437466519
  H   2.05243614861091      2.90458299368839     -0.00914116477648
  H   6.21395499041782      2.91492362062985     -0.00489779236468
  H   5.27026073256068     -3.46161967375225     -0.01030093789027
  H   8.81534022903888     -1.39169798239970     -0.00885926080701
  H   9.34897925659060      2.79371020731932     -0.00827564526605
