27
Coordinates from ORCA-job 7852optt
  Br  0.91904524154724     -0.00115315214927     -0.14110317010474
  C   2.81232803946247      0.05425741018918     -0.07809952495662
  C   3.42292223779170      1.28553883663145     -0.09370382826956
  C   2.79458412127378      2.64336514809349     -0.14228537219603
  N   3.96040988091145      3.52102179465305     -0.12489201136691
  C   5.24324957898473      2.81991208203479     -0.09169415874369
  C   4.81481184083053      1.37812195930062     -0.06178394919086
  C   5.59462876320850      0.24756093332205     -0.01087294134305
  C   4.97550731519686     -1.00293739599583      0.01094755055896
  C   3.57153660601692     -1.12834546233191     -0.02067128908286
  C   2.97816700766509     -2.44346562203215      0.01064128638597
  C   3.77706478489180     -3.51778089435232      0.06906844578661
  N   5.14355085267960     -3.40522076001011      0.09583402525178
  C   5.83760794231342     -2.20362775208128      0.07012509482468
  N   7.10844244378197     -2.09997199369774      0.09447219798654
  C   3.81147869060454      4.85954424811073     -0.13601050322686
  O   2.73873836099305      5.42119664253069     -0.16055961237235
  H   2.14251343465958      2.83875193135711      0.71323036384552
  H   2.19497035618555      2.79983930024577     -1.04306614466867
  H   5.82497217471954      3.08791165235956      0.79432750946758
  H   5.84694309956951      3.04428244697978     -0.97539900881017
  H   6.67583822911953      0.28388118037312      0.01412083491290
  H   1.90783106905083     -2.56606297942156     -0.00879535232093
  H   3.39482510746462     -4.52793735882019      0.09933739214624
  H   5.69535447534426     -4.24630913880645      0.14525566058174
  H   7.57266958011866     -3.00407045724275      0.13482059300547
  H   4.77100876561424      5.40369740076014     -0.12024408810070
