26
Coordinates from ORCA-job 7854optt
  Br  1.06046690234307      0.23641870162085      0.29002099875991
  C   2.94169504290398      0.17671111289194      0.12475997835994
  C   3.68083064565468      1.34023238082698      0.03026980875114
  C   3.23286338641212      2.78021493509497      0.01232453409349
  N   4.46732935210289      3.55958280377636      0.18423070182825
  C   5.58188346316118      2.70320136420785     -0.24599082236137
  C   5.06675343913067      1.28716081518288     -0.11020683378652
  C   5.74694214766104      0.08061389150003     -0.14000049450911
  C   4.98570932844676     -1.07008843961804     -0.01053467188967
  C   3.60931302378016     -1.03550949628771      0.11349979016496
  C   3.08621225877692     -2.44893442489896      0.18461637307671
  O   4.26008209027812     -3.23419177702592      0.41163312294074
  C   5.41250132651749     -2.52011934598831      0.01302686601494
  C   5.90467336229475     -2.96463450688165     -1.31162969831332
  N   6.31541939270077     -3.28951036935510     -2.33010337259492
  C   2.40432545314562     -2.83670943650768     -1.05649788977019
  C   1.86547328224231     -3.14067832370331     -2.08008118245523
  H   2.50490768033053      3.01153654949661      0.78959614248702
  H   2.76451051373330      3.00966295453424     -0.95049331499323
  H   4.58063273959031      3.77012028222045      1.16745292800201
  H   6.47573760966685      2.90056013194439      0.34461654676753
  H   5.82698863350191      2.90720746931396     -1.29311284357873
  H   6.82272857690035      0.03525930006064     -0.25890794899594
  H   2.41987228520173     -2.60765056504440      1.03455099160053
  H   6.20163139507007     -2.71637930269635      0.74149588913535
  H   1.39151666845231     -3.41807670466470     -2.99153559873430
