25
Coordinates from ORCA-job 7856optt
  Br  1.23757583801868      0.05432301695210     -0.00272055114265
  C   3.12079366055262     -0.00705718713328     -0.04448680984012
  C   3.75872779578215     -1.20849820612424     -0.06034287837617
  C   3.21254585828622     -2.61380568062121     -0.05521115610018
  N   4.35849939829314     -3.46834479737787     -0.39873186087278
  C   5.57087163944749     -2.72707818920013     -0.02412725692510
  C   5.16990212726080     -1.26903387922929     -0.05997858572074
  C   5.93182305834146     -0.14163957175244     -0.06140083245529
  C   5.29233634473389      1.12355389222250     -0.07156711595227
  C   3.86877854788394      1.20512141908788     -0.06019201399171
  N   3.20235922027472      2.38218320017670     -0.06874741480361
  C   3.88586323386229      3.48566145890896     -0.08648124088969
  C   5.30665143900158      3.54981844125913     -0.09836759871421
  C   5.93618675478162      4.82715472904990     -0.11570112276743
  C   6.42393971099577      5.92175567252908     -0.12964776734242
  C   5.99075261887847      2.35641653276144     -0.09236453665287
  Br  7.87567265803588      2.37834594012856     -0.11338095767367
  H   2.38907774812658     -2.75260647231380     -0.75469860379022
  H   2.83745310985078     -2.86080055543265      0.94327469369275
  H   4.36355652749617     -3.61424197459424     -1.40029120076681
  H   6.40045077545522     -2.96799953180257     -0.68746717037113
  H   5.87032138591672     -2.99940120770360      0.99290101698880
  H   7.01188158409925     -0.19226298141615     -0.05673275880040
  H   3.33126966164487      4.41830399751599     -0.09298483384676
  H   6.86870930297965      6.88813193410925     -0.14255144288531
