24
Coordinates from ORCA-job 7857optt
  Br  1.04351055929448      0.04440282557300     -0.25002531940782
  C   2.91765279198475      0.09684016252249     -0.18301260144827
  C   3.61791399659492      1.29330780629092     -0.14658420318488
  C   3.05019501345808      2.67844899854513     -0.13921464864172
  N   4.24113462618854      3.50522151860412     -0.08834994554566
  C   5.49160092648707      2.75546794796071     -0.07608990201812
  C   5.01382082354317      1.33083460742578     -0.10903695797118
  C   5.76171420679175      0.16973837377328     -0.10323153255707
  C   5.06177292597971     -1.02848725981763     -0.13135285701822
  C   3.67140042113445     -1.06133739382436     -0.16993258606506
  O   3.13856385823036     -2.32384621110089     -0.19294764598496
  C   4.17330394804523     -3.23726874726045     -0.16379356063292
  O   4.00690575156437     -4.40257962190041     -0.16771350250495
  C   5.50459259334570     -2.42371933488534     -0.12685154837404
  O   6.59290704558127     -2.91180638643452     -0.10194507445457
  C   4.18952378960276      4.86692966126132     -0.05320087828941
  N   3.16989848219690      5.62371000006169     -0.06854825887127
  H   2.39909654720389      2.84168604180636      0.72866843421689
  H   2.44942812835062      2.87281972310248     -1.03639802411627
  H   6.07770270184069      2.96306339390625      0.82436927530170
  H   6.11290740206240      2.99122517094884     -0.94565555138987
  H   6.84412210314233      0.17188249375001     -0.07426681695771
  H   5.17806354419253      5.32546864609986     -0.00251158983484
  H   2.29526781318396      5.10299758359135     -0.11837470424979
