24
Coordinates from ORCA-job 7860optt
  Br  1.25409708278487      0.47035458069862     -0.44312128481831
  C   3.06906256713555      0.10277191656650     -0.21408679977153
  C   3.57975662800695     -1.11833852494993      0.03745607361399
  C   3.03188503993014     -2.41766060113830      0.22710017919676
  N   3.98511536682732     -3.27640361704730      0.49781824466116
  C   5.19030266035175     -2.60911046060156      0.49897806445794
  C   5.02592731323974     -1.27239568766241      0.21466859905331
  C   5.84294419955856     -0.11655842938640      0.06259117725511
  C   7.35536434146245     -0.13590402122752      0.15914575094737
  C   8.07914945618456      0.17378017277548     -1.17853368224613
  O   8.77005468334065     -1.05192289491748     -1.48281218112118
  C   8.60046924628425     -1.84107856640624     -0.40874556841359
  N   7.86664279503711     -1.45625646236154      0.54088772475847
  C   5.20817976971523      1.06463323359943     -0.19418011184011
  O   3.83232412242204      1.16820704909644     -0.31862679263294
  C   5.80747952446303      2.39123724430358     -0.34828914978700
  O   6.99257960589150      2.61759096019753     -0.32865190117502
  H   1.99041907176529     -2.69964978550668      0.17292289430470
  H   6.10290894629546     -3.12992959822005      0.72538316869456
  H   7.64650455344372      0.59385996886639      0.91504734838689
  H   8.81187152697244      0.96808020181622     -1.06880514468522
  H   7.40368613308840      0.40569573374891     -1.99921329152221
  H   9.12896942757256     -2.78548006871522     -0.44569861008404
  H   5.06630593822631      3.19747765647154     -0.48523470723297
