25
Coordinates from ORCA-job 7865optt
  Br  0.97339698785304      0.15884734159290      0.00118999648215
  C   2.85622749752068      0.09594314476249      0.02036105393359
  C   3.59402973780408      1.25278310520987      0.03191782532233
  C   3.14603828055359      2.69354658950061      0.02820633082862
  N   4.35405216435040      3.46725239708311      0.35435921368356
  C   5.51384016230832      2.63345390298640      0.00742231914366
  C   4.99446475083228      1.21336869437835      0.01797288149672
  C   5.70043796378450      0.03096325900155     -0.00441329304882
  C   7.21125725065362      0.00803007940417     -0.01985277907745
  C   7.77331593687668      0.15283758166927      1.32371783794562
  C   8.21486508703984      0.28225821665705      2.42918453851275
  C   4.93755969213518     -1.13999424433252      0.01838380715401
  C   3.52994509372405     -1.13468438236083      0.02686891450106
  N   2.94145452926208     -2.38049783565428      0.04850039629252
  C   3.83820032838821     -3.29887288418356      0.06346657076611
  S   5.49357902648414     -2.77704223466156      0.05312258612243
  H   2.34558180995093      2.89185016471654      0.74047568189988
  H   2.77309196656642      2.96648500613380     -0.96419359254271
  H   4.36751602622703      3.63774147330612      1.35150247569322
  H   6.33427913261860      2.79331725050714      0.70822274950728
  H   5.87761353572381      2.89364953494111     -0.99299095502701
  H   7.58350297341098      0.81947236873077     -0.64977025424512
  H   7.57139199086320     -0.92377033768645     -0.46243550281851
  H   8.61091947910884      0.39033684064765      3.41054903784985
  H   3.60743859595942     -4.35527503234973      0.08523215962427
