22
Coordinates from ORCA-job 7866optt
  Br  1.09624228771439     -0.16805412378021      0.17349802301109
  C   2.94153217592898      0.02065900049859      0.11637471730298
  C   3.61309210634765      1.19841479807631      0.08436457180276
  C   3.27865100979105      2.58584238447158      0.08017408964563
  N   4.37227159603812      3.32548629418399      0.04846860696134
  C   5.45228520051457      2.48971560266789      0.02844604811495
  C   5.06241300598147      1.16981257446405      0.05080416016789
  C   5.73632325508439     -0.08086441716460      0.06281761269565
  C   7.24557722258285     -0.12863329202242      0.07773394925709
  C   7.82864669267130      0.60296455529111     -1.04661537998508
  C   8.31081747649456      1.19760471099531     -1.96597183450963
  C   4.96385409519008     -1.19678649480521      0.09432603558871
  O   3.58304435156323     -1.12615250090179      0.11353526734131
  C   5.35511891315359     -2.62285950681360      0.11450970627684
  O   6.48193850096143     -3.03494966142948      0.15196813489178
  C   1.96717008096623      3.14791364627539      0.10087676581542
  N   0.89743129773784      3.56271666839246      0.11824551896153
  H   6.45297470281113      2.88857959536921     -0.01665772135759
  H   7.59514099662155     -1.15739754266624      0.07370215290497
  H   7.58051887685192      0.33244547755873      1.01237572024191
  H   8.74076696764616      1.72498654193771     -2.78411362289256
  H   4.48718918734745     -3.30444431059880      0.09513747776299
