23
Coordinates from ORCA-job 7870optt
  Br  1.15254774452315      0.30015100304948      0.01178133716473
  C   3.01227994093767      0.06958400665502      0.04947946678777
  C   3.61357286596176     -1.14242397567191      0.18173162490128
  C   3.18490827647384     -2.48653117938107      0.30979305152543
  N   4.22720076474274     -3.29108696144391      0.40528918750316
  C   5.36828173868213     -2.53859517180937      0.34273114829279
  C   5.07455577510820     -1.19889457402211      0.20739404504279
  C   5.80694758336061     -0.00094331041172      0.07992996466681
  C   5.14211634098099      1.18289120000762     -0.04470529501844
  N   3.74994156407141      1.18886986894533     -0.05947810498048
  C   5.81082963185924      2.47856220955676     -0.19602095939083
  C   6.95201784851566      2.77705833397925      0.46543978699991
  N   7.68980127135295      3.92576332145906      0.33713404752041
  C   7.33002038721347      4.91708604622916     -0.38670047877112
  C   6.10655125067038      5.04655350977737     -1.19782064267500
  O   5.79835575529565      6.03465261579712     -1.80429630069120
  S   5.06758565800666      3.59573338203987     -1.30110223510109
  H   2.16832277595782     -2.84970465253516      0.33371184946615
  H   6.33973836672074     -3.00432707656781      0.40199526559670
  H   6.88779509019956      0.00109872545258      0.04369572868121
  H   3.26788521595198      2.07602640735975     -0.11093871944730
  H   7.34434606398859      2.06023107892468      1.17555666009462
  H   7.96939808942472      5.79624519261000     -0.42460042816828
