27
Coordinates from ORCA-job 7874optt
  Br  1.08867036936538      0.15079659957278      0.08633993886680
  C   2.97092366456254      0.05782101889242     -0.02763031716575
  C   3.71737604484901      1.22851657512752     -0.03137494251663
  C   3.26533842865100      2.66726798666906     -0.04129127396416
  N   4.49028196609601      3.44215236719392      0.19428145290137
  C   5.64263267211906      2.58169960055847     -0.11878750456579
  C   5.10111416147711      1.17263748985553     -0.07868049703053
  C   5.78944060097845     -0.04406315887498     -0.11777725329938
  C   7.25734786001004     -0.12652972648287     -0.18693070279546
  O   7.97729431265523      0.83969699035838     -0.24755891328697
  C   5.00323669296739     -1.19491103397045     -0.09961377662675
  C   3.61476702393631     -1.16322719083737     -0.07396095789828
  C   3.10281708625149     -2.58599647072798     -0.03742252877441
  C   4.42447636426531     -3.37878482790591     -0.24335369608054
  O   5.50726194258878     -2.45024744660185     -0.07780795582321
  C   2.11671880064036     -2.91223964573467     -1.06377217830429
  C   1.34052646935391     -3.20970913405648     -1.92449188058488
  H   2.50875984710373      2.88129232114563      0.71410849060187
  H   2.82873955988622      2.91504886469157     -1.01469037757366
  H   4.53211259097911      3.69730341556099      1.17146727325136
  H   6.46421668538037      2.74285395123786      0.57618818393540
  H   6.03391599607061      2.79409551873845     -1.11857067164091
  H   7.67649518810837     -1.14603534469835     -0.18692234664775
  H   2.67010727739825     -2.79783445440452      0.94475289719808
  H   4.47233610707103     -3.78402633904741     -1.25346828538603
  H   4.55518635717518     -4.17798341595847      0.48170176661212
  H   0.64090593005961     -3.46059451030124     -2.68573394340160
