27
Coordinates from ORCA-job 7876optt
  Br  0.98361353477682     -0.43429704648455     -1.37826654270619
  C   2.62702778420920     -0.33870443378652     -0.47827697866076
  C   3.37441421105425     -1.41338480837819     -0.15316497129699
  C   3.14711443118311     -2.89803784579718     -0.26973756502520
  N   4.48952430816258     -3.48249876894667     -0.15757277117689
  C   5.33052344798310     -2.53154143634919      0.59140631750441
  C   4.65801738863152     -1.18561278538304      0.43159474615171
  C   5.11323661830543      0.04985920740334      0.73489659964964
  C   4.29984227481750      1.21455116386714      0.43960533328165
  O   4.58316454138582      2.37386111099321      0.65992788199197
  N   3.07676367770339      0.91055226402466     -0.18810694954827
  C   2.29349788092336     -3.43527650232037      0.88602803789244
  O   2.84863147129229     -3.11933991360002      2.14248042856076
  C   2.14272223399617     -2.02264051124385      2.68213036925059
  C   0.88541137405238     -1.93950538755874      1.84363419832408
  N   -0.13022031005412     -1.21107164737991      1.93180584862124
  O   1.00236268934638     -2.86271575455967      0.85991521567160
  H   2.66452154864135     -3.19302199568245     -1.20285896673032
  H   4.87168096688081     -3.60942964730544     -1.08520560382337
  H   6.34961604299206     -2.53102898909475      0.20683300762067
  H   5.36265710413841     -2.80830992816114      1.64597183854321
  H   6.08599648410066      0.23447801393423      1.16924715051640
  H   2.51911017030708      1.71528632072973     -0.44094406553383
  H   2.20910962059896     -4.51882203345553      0.80659547977269
  H   2.71773120552034     -1.09442187842092      2.60511365157669
  H   1.90884395615582     -2.22183851998254      3.72799414699643
  H   -0.05991465710480     -0.59308824706162      2.73595416257561
