25
Coordinates from ORCA-job 7881optt
  Br  1.13690303324782     -0.01985708080236     -0.22399441354485
  C   3.00618124398489     -0.03563915756916     -0.07320600067864
  C   3.70390550341560     -1.18229489219347      0.04312701413444
  C   3.24366994143269     -2.61647509120104      0.10415953439641
  N   4.45966220929397     -3.41678358112651     -0.08470287209603
  C   5.58919495340710     -2.59509672364111      0.37202061955761
  C   5.12151345245912     -1.16772969554176      0.18131981702009
  C   5.77290061875467      0.00604471906143      0.17112304221318
  N   5.07652778993168      1.18799414701340      0.00566373094758
  C   5.81920812441220      2.37427871420965     -0.12489386716974
  C   7.06032053924072      2.54778558845200     -0.58936410761727
  O   7.41693732372341      3.86175254413689     -0.43331159725248
  C   6.35815902861571      4.54626020127792      0.11604393645317
  O   6.35183286716274      5.72031311649570      0.32447107480358
  N   5.38483248301591      3.60408587690775      0.34779759505752
  C   3.67077353511502      1.25902972357783     -0.10481043645631
  O   3.10844534829797      2.32955613528185     -0.22298186350788
  H   2.48449282175584     -2.84976517276936     -0.64097527708390
  H   2.80623142891811     -2.80921777791779      1.08942334729062
  H   4.57193720572273     -3.60947183701325     -1.07222107611003
  H   6.49492222410227     -2.84074249522011     -0.17965835265663
  H   5.77805752387305     -2.79158910204811      1.43109672509934
  H   6.83888556620901      0.11521180190305      0.30907407683612
  H   7.78146005200039      1.87822323444495     -1.01953290555812
  H   4.41204518190733      3.82912680428161      0.49333225592221
