26
Coordinates from ORCA-job 7883optt
  Br  0.93283598123670     -0.46236168050521     -0.03694589369231
  C   2.78305829580710     -0.22678227555571     -0.17568939729790
  C   3.68264341574901     -1.15003422054918      0.15410111664031
  C   3.58331862393169     -2.57429967053027      0.64321462869785
  N   4.89003696296532     -3.16020003260100      0.31006814564412
  C   5.86084164482575     -2.05934951635358      0.35128368392956
  C   5.07332109197810     -0.82959842686977     -0.02910574474235
  C   5.44652596350990      0.37385418298124     -0.49099168022047
  N   6.78461151777082      0.74997846437069     -0.70520351900144
  C   7.77104377580907      0.59238496613926      0.21614969856621
  O   7.65773659332170      0.12269369183593      1.31282809305062
  O   8.94164168049982      1.06199061639216     -0.31277646727918
  C   10.06997093494976      1.01129675589255      0.48209974910729
  N   11.18074631520038      1.42129147233272      0.09042256585694
  C   4.42851509212703      1.38548405705763     -0.80653456186042
  N   4.57991759253333      2.56721371127132     -1.21746264209801
  O   3.11507767160847      0.98127290809228     -0.65385294456325
  H   2.76983718058608     -3.13257114345182      0.18339094182682
  H   3.43780481415920     -2.59527729047666      1.72672833218186
  H   4.84952810124120     -3.52587730764425     -0.63383462037577
  H   6.71329645982038     -2.24703915723793     -0.30100802393133
  H   6.24639532202606     -1.92934145791361      1.36553802442473
  H   7.03662464860285      1.20241030748634     -1.57161967607811
  H   9.89574338253003      0.58599998236666      1.46377272363286
  H   11.13891369022691      1.78638438886919     -0.86125352949367
  H   5.56101324698330      2.81847667460105     -1.27231900292498
