24
Coordinates from ORCA-job 7885optt
  Br  1.22032254306859      0.36750040694871     -0.61246759920334
  C   2.87288735097654     -0.09197905606462      0.12054029056431
  C   3.71558479616391     -1.00221800014691     -0.41448805581409
  C   3.74809695814600     -1.84339722836748     -1.55983126532329
  N   4.87955243260941     -2.50564607365112     -1.59725436930328
  C   5.63748610265785     -2.15056062401425     -0.49829606624702
  C   4.96984436734939     -1.22937892680453      0.27015637603158
  C   5.16828713166636     -0.49548694930881      1.47153694354831
  N   4.33207635638779      0.35592081689860      1.95423657816712
  O   3.14285690783936      0.56674749075848      1.22305359980705
  C   6.97798815547749     -2.81721880895510     -0.30524294087905
  C   6.81844278738643     -4.28828996454282      0.24550335640800
  N   6.97144899776742     -5.16389121566299     -0.90822862745173
  C   7.37442525027959     -4.43994024313589     -1.86338479083064
  N   7.60916552593930     -3.09660140025988     -1.60116352275200
  C   7.84814072309279     -2.01055094737109      0.55617897972158
  C   8.56257618185169     -1.36948043518386      1.27231172084369
  H   2.98630911792034     -1.95257768795984     -2.31764874999103
  H   6.05670237812949     -0.60250734251173      2.08092310219252
  H   5.84667935272637     -4.42808938818638      0.71819580704595
  H   7.59791696357292     -4.49725401666108      0.98017685261160
  H   7.58539076864811     -4.81950634653645     -2.85646613373582
  H   7.38599553218187     -2.44711120718912     -2.34309573741861
  H   9.20882331816085     -0.79948285209178      1.89675425200819
