23
Coordinates from ORCA-job 7891optt
  Br  1.29117929947701     -0.17932428867816     -1.06819919935284
  C   3.20868480599892     -0.08727047038059     -0.77515604578244
  C   3.76144960892009      1.15054882672335     -0.25202797091043
  C   5.11932198844748      1.19519745145086      0.07180147235627
  N   5.40360336641086      2.42807863456240      0.54304524250689
  C   4.27614862431269      3.20506368116159      0.52282256836494
  C   3.24051172879904      2.46135963717718      0.04520932993785
  C   1.87196525068563      3.05941966115498     -0.09077202656550
  O   1.47936135219020      2.98078743131708     -1.45874624759215
  C   0.28943188846677      3.54512378751052     -1.78491979093098
  N   -0.19879330983071      3.52489471565496     -2.93694670734064
  C   0.89307818182826      2.47657877886449      0.83947732194506
  C   0.12263806438846      2.05488267561131      1.65202674372954
  N   6.13649110619820      0.28971767720311      0.01073450407392
  C   6.30036828571137     -0.83579917020674     -0.41239958560305
  O   6.64895200513158     -1.87771758003903     -0.75634102206635
  O   3.85551699459943     -1.05874198782131     -1.02100311528002
  H   6.32280287283379      2.70631029104834      0.84458778865635
  H   4.29452917654394      4.23163083261439      0.84611103356707
  H   1.96877107245801      4.11797008005914      0.17738354525745
  H   -0.22725822579242      4.03620978234421     -0.96038727343899
  H   0.40581121636569      3.01350394912745     -3.58143906739624
  H   -0.55856535414436      1.64957560354039      2.36213850186429
