21
Coordinates from ORCA-job 7893optt
  Br  1.51203060331073     -0.68467314270662      0.80959746046255
  C   3.24329634012276     -0.20819262679733      0.30573084851470
  C   3.67287897423655      1.05312859720644      0.10640317099875
  C   5.11163437895306      1.13493046794027     -0.04743620531371
  N   5.42058982199920      2.47135788027498     -0.04357285304543
  C   4.27547917231819      3.21656382953175      0.09081610163580
  C   3.17990571579026      2.41747885983171      0.18116914324970
  C   1.82919261515320      2.97304396921698      0.21662093304781
  O   1.57143368883798      4.09138488801813      0.58953547848453
  C   0.68207230117960      2.20158853978995     -0.44440115764947
  O   0.77798520727756      1.76979153265347     -1.55731576727169
  C   -0.63910974530935      2.09721223952319      0.32038663289683
  O   -0.68598800000482      2.17409156117440      1.50989020192923
  N   5.95783584250675      0.17034961846719     -0.12497925509095
  C   5.43849081031993     -1.10288127415824     -0.09474753296622
  N   6.02277765815109     -2.19554637132866     -0.27861115382173
  O   4.05629703835869     -1.24033348539408      0.21874576806736
  H   6.35723474359088      2.82544855726725     -0.14879077691126
  H   4.30071516254724      4.29454733211582      0.08549891648967
  H   -1.51251474572998      1.87267589573092     -0.31710531749549
  H   7.00376241639043     -2.02096686835752     -0.47443463621097
