30
Coordinates from ORCA-job 7914optt
  Br  1.10176446017353     -0.67663752356269     -0.46010509154737
  C   2.95778229803243     -0.41486452489436     -0.26151373309843
  C   3.43454624900953      0.58123843051581      0.54482047415486
  C   2.91210497859252      1.61712158108507      1.35831391482304
  N   3.89103921198141      2.32461691441638      1.88179699411569
  C   5.09324860338602      1.81021829011491      1.46045685338758
  C   4.87515722036432      0.73154269203591      0.63902804903646
  N   5.66277332481095     -0.15765032420723     -0.06893737937430
  C   5.04839953765708     -1.07677588830320     -0.82645807842518
  N   3.75027919452294     -1.23823933813040     -0.94831830475065
  C   7.12493803054807     -0.05326794101584     -0.02298447764741
  C   7.66648815250929      1.24637747423658     -0.65871163406991
  C   9.07671817311413      1.36907065579270     -0.02558390877822
  C   9.18523290603319      0.06982769208650      0.78007725809290
  C   7.77641240336278     -0.05469855042768      1.37070255884370
  N   9.26126671340443     -1.03206201728247     -0.19996351925611
  C   7.87756278104286     -1.23077419248588     -0.67344102220354
  H   1.87193106609038      1.83405975837571      1.54747106872379
  H   6.01622545494353      2.26706158814549      1.77393417713721
  H   5.68481778769706     -1.73873575490387     -1.39370356259255
  H   7.02779651810931      2.09094877805704     -0.40714530897263
  H   7.69402778641268      1.15528475672189     -1.74441751109861
  H   9.13533716018963      2.23811834301218      0.63010334008519
  H   9.86888225219598      1.43559557173509     -0.76738652178947
  H   10.01791916288258      0.03547035842461      1.47742217786191
  H   7.49014261235687      0.78777434756446      1.99343578185217
  H   7.60593127340892     -0.98911605261435      1.90672569137518
  H   9.60216096448978     -1.87466793825593      0.24269945550398
  H   7.47020100829860     -2.18681490519953     -0.33226400843913
  H   7.82491271437910     -1.19602228103691     -1.76405373295015
