24
Coordinates from ORCA-job 7917optt
  Br  0.99812036472674      0.14328643249684      0.12627560946276
  C   2.88445100750509      0.01139256659163      0.03298933498835
  C   3.50996765654857     -1.21942345401903      0.01468052452360
  C   3.06075404932628     -2.66538582085946      0.07549367137553
  N   4.27623188759143     -3.43445436004792     -0.22609669851010
  C   5.44257921644079     -2.57903261743200      0.02675501300671
  C   4.89892898740063     -1.17744500011903     -0.01709917654442
  N   5.61034102823329     -0.06661995096467     -0.04269210242043
  C   4.88996894245908      1.05919118785912     -0.05309438233592
  N   3.55781418688720      1.14065145893975     -0.01300686802475
  C   5.61165685970293      2.30180551426101     -0.10833228416692
  C   6.21527807249576      3.33366269929254     -0.15386881011462
  C   1.99039437973543     -3.00720426357353     -0.94845085388503
  O   2.20618517166578     -3.13584981985156     -2.11566121653809
  O   0.78240301023668     -3.16753781654757     -0.36868593538328
  C   -0.32465643912190     -3.34329678956011     -1.18547469271365
  N   -1.47371198088723     -3.47202085697762     -0.72098043467931
  H   2.67429500962303     -2.90111878319470      1.07026602505085
  H   4.24727072459968     -3.66793586148455     -1.21301777972964
  H   6.22753967020581     -2.74433758302052     -0.70911484586989
  H   5.86595352559630     -2.77156718489018      1.01675572131684
  H   6.75184969722792      4.25183627439394     -0.19539402686128
  H   -0.09430556852456     -3.35189468713887     -2.24435718937454
  H   -1.47630945967474     -3.43670128415349      0.29911139742724
