25
Coordinates from ORCA-job 7918optt
  Br  1.16643554311909     -0.18874683079699     -0.90835670881559
  C   2.95342498418138     -0.19353941859800     -0.32238667784932
  C   3.61441611471048     -1.36612680832021     -0.28745745830499
  C   3.33142333566774     -2.74104857417826     -0.63938627981129
  N   4.37662403417655     -3.48103808913018     -0.44126198598979
  C   5.40817774782165     -2.67033794153960      0.05877968629833
  C   4.98116247031939     -1.39046589181561      0.16308332499839
  N   5.53421600744718     -0.20283752767051      0.59664325273965
  C   4.86107190670758      0.99047172256209      0.62820356340505
  N   5.30080555026785      2.09005515506077      1.09056324690164
  N   3.55097081749166      0.98148876646097      0.07000567948771
  C   2.90932773784918      2.29456945938950     -0.12131968620251
  C   2.52225768783755      2.98410709601193      1.20185307067201
  C   1.70118465989113      2.10293897558693      2.02726995183123
  N   1.06159082223372      1.39151527550815      2.65793438046039
  C   3.69682118698252      3.18458976478017     -0.97635113417634
  C   4.24497832874738      3.94468624993532     -1.71842658990778
  H   2.40025271247913     -3.12765431085778     -1.02739827370337
  H   6.36887188935476     -3.09293360807487      0.30402599566423
  H   6.45655485411571     -0.19913669039701      1.00073700274722
  H   6.24994427735341      2.00705606346692      1.43814642561360
  H   1.98688373216880      2.09453972419805     -0.65792797334327
  H   1.95268193801756      3.88207087894660      0.96096906959962
  H   3.42002851788848      3.26659739854499      1.74538402218548
  H   4.75789314317006      4.61417916092662     -2.36732590450032
