22
Coordinates from ORCA-job 7921optt
  Br  0.92394061886924     -0.64089125509845     -1.12158238170668
  C   2.70133007454979     -0.34896893568686     -0.58296633704041
  C   3.46260092207059     -1.32691059793322     -0.07153492974709
  C   3.26143728727209     -2.72088061938323      0.20366604629449
  N   4.34334261042324     -3.25296034141849      0.70576006798637
  C   5.31494987293219     -2.26954298608988      0.79802215633142
  C   4.84712751214541     -1.07108598413280      0.34183411015434
  N   5.46903333109008      0.13122195078847      0.26136644881910
  C   4.90086780468516      1.18160740138996     -0.20065561558938
  S   3.23036676154345      1.27371332582422     -0.81324353668247
  C   5.69318682908600      2.43666499281895     -0.22692920533765
  C   6.95811711143002      2.44514977211810      0.27025911199026
  C   7.75110024084366      3.62531189348234      0.25782952042343
  C   7.21122107605455      4.73586595477073     -0.26744271310975
  O   5.97187526125405      4.76252790575924     -0.76602760258483
  C   5.13711596278865      3.66455051795249     -0.77924629256944
  O   4.03997937510573      3.81336646900946     -1.24021703238260
  H   2.35793238536654     -3.28701667598022      0.03042867883178
  H   6.29487542564456     -2.49134615312129      1.18953254228514
  H   7.35205067622860      1.52293098513286      0.67714832807392
  H   8.75536614291578      3.64108999580073      0.65029171021226
  H   7.70018271770056      5.69660238399690     -0.34529307465221
