22
Coordinates from ORCA-job 7922optt
  Br  1.05587124783656     -0.45892060268913      1.31673752625621
  C   2.82725952521796     -0.25895114489875      0.71623746058294
  C   3.56560595411245     -1.30033512340781      0.30294461538213
  C   3.33636127396321     -2.71135007210063      0.16928771599820
  N   4.39151634561976     -3.30644050312653     -0.31941348453819
  C   5.37393734786446     -2.35319263892968     -0.53576546845323
  C   4.93933984932718     -1.11016392733894     -0.17740883653474
  N   5.58215516808669      0.08417236008701     -0.22505478962323
  C   5.03450417932938      1.18309385546029      0.13717773977205
  S   3.36878852017028      1.37464410157270      0.73597816022284
  C   5.84273133775669      2.42454303212222      0.07730493497814
  C   7.15598843044507      2.30630445582211     -0.20876163866794
  O   8.00125634746122      3.33602635027506     -0.31244627436271
  C   7.52958852976559      4.58390362133213     -0.11949631687203
  C   6.25364910342581      4.84210264314098      0.17529171125553
  C   5.28125019773227      3.76175513227805      0.30527484078950
  O   4.10928073947129      3.95814888982066      0.57623927622062
  H   2.43224384452516     -3.24493944505975      0.42414979752572
  H   6.33550159973123     -2.62905407782475     -0.93834052498884
  H   7.63356759522174      1.35368216759451     -0.38363403180224
  H   8.30660470646088      5.32493464828857     -0.23577506855617
  H   5.91799815647505      5.85803627758167      0.32347265541543
