22
Coordinates from ORCA-job 7923optt
  Br  0.90539571109229      0.07726101265949     -0.53200969559997
  C   2.75364742049394      0.02704253261815     -0.21730902517921
  C   3.42205936614007     -1.14634325592204     -0.02936337243358
  C   3.15989696979418     -2.52479828120581     -0.00807912795486
  N   4.27467345997794     -3.19917405282966      0.26601173469333
  C   5.29493490416452     -2.32005294217955      0.43702073865162
  C   4.84070597290138     -1.02709412868296      0.26630311514085
  N   5.45895358076472      0.16997810312045      0.35004311464356
  N   4.82010774463892      1.23065334002197      0.14816950867407
  N   3.45428109517324      1.16799711824435     -0.15932872221056
  C   2.89423411677873      2.51186775557977     -0.28537699847305
  C   2.50503761949946      3.06378650653653      1.05349325203411
  N   1.30276360461060      3.40612715174998      1.32946472506143
  S   1.22919383594891      3.99159964042609      2.90218935976330
  C   2.96442093268513      3.74931455109313      3.21853574161404
  O   3.58822116013699      3.98418366456122      4.21188373215873
  N   3.45185898014169      3.22101220423674      2.02983065134655
  H   2.21688087112028     -3.02039026484414     -0.18220873754261
  H   6.29432806854179     -2.64844897423856      0.67364049961705
  H   2.01829094665229      2.49993427887414     -0.92488528514161
  H   3.67436537857793      3.12306670230712     -0.73678704554611
  H   4.42374826016498      2.95947733787357      1.92176183668291
