22
Coordinates from ORCA-job 7926optt
  Br  1.12754012644346     -0.08126704192827      0.32961770052076
  C   2.99726753981022     -0.03939902520905      0.14247666460450
  C   3.71730965712702     -1.16669481954074      0.07486458051546
  C   3.26183643718413     -2.61902354823556      0.09445592688006
  N   4.45368931915073     -3.40769580925301     -0.27162572230413
  C   5.62840642404004     -2.61659541144724      0.09641447457234
  C   5.17275428868558     -1.17517878493459      0.03366013253820
  N   5.95893801747179     -0.17529417696904     -0.00809531908634
  S   5.36945887416367      1.37038985868537     -0.03573480627547
  C   3.60066998232453      1.30567976195063      0.08906201159681
  N   2.89008049215645      2.35261272321211      0.12368212920984
  C   2.13576018299103     -2.94222114903770     -0.82322346753306
  C   0.99559807942279     -3.65322784845753     -0.70520488296336
  N   0.39162352612372     -3.62631642057013     -1.94013079102773
  N   1.08195327618063     -2.97430329131535     -2.74729844625965
  O   2.21956378135585     -2.51661271373872     -2.08137039246534
  H   2.94881509291476     -2.87900255084801      1.11148822737207
  H   4.44781673605109     -3.55036697541652     -1.27550318431996
  H   6.46970152177297     -2.81655057044217     -0.56307626231744
  H   5.93405761862294     -2.85259589534946      1.11980981644630
  H   3.43771684059940      3.21064797816461      0.07403595397555
  H   0.56144218540715     -4.15498428931963      0.13969565632059
