26
Coordinates from ORCA-job 7927optt
  Br  0.91142321330604     -0.08574150617320      0.32825376769915
  C   2.77710647129182     -0.00047629633156      0.08689772738037
  C   3.50921242149803     -1.13526311039579      0.12557288930877
  C   3.29806097324389     -2.53472735423348      0.35992312443325
  N   4.42551433411862     -3.18584953808376      0.27297638425613
  C   5.45266347798083     -2.29453981563610     -0.02956191429321
  C   4.93866241226502     -1.04702055286915     -0.12375965642061
  O   5.51691614730563      0.13841543892797     -0.41904189670457
  C   4.75677600640482      1.22796203372708     -0.42609383111426
  C   3.42219591611167      1.26094588667320     -0.16869527754045
  C   2.65119345812413      2.55122885829546     -0.16113365075560
  C   2.21044234359710      3.06321196594861      1.21762393844139
  C   1.82421987678914      4.50583323222005      0.90583122223739
  O   2.59829860793475      4.88973599558656     -0.24042595960867
  C   3.39183943617390      3.80325318084035     -0.65036453597740
  C   3.58372562727596      3.82950669810290     -2.10619999788646
  N   3.76203395751422      3.80347380461856     -3.23686961016787
  H   2.35986705098409     -3.01694881803617      0.59036978896142
  H   6.46749796983317     -2.63020000251360     -0.15818722585380
  H   5.33928594919806      2.09975271012144     -0.68535470650118
  H   1.76527785738799      2.43827736905985     -0.79267743752749
  H   3.05921727230866      3.02045578784989      1.90353733255795
  H   1.39042510063881      2.49131370392371      1.64372066009362
  H   2.04388902824757      5.19159620411895      1.72363617907756
  H   0.76904933231472      4.59488279103997      0.64306453622238
  H   4.38220575815132      3.87392133321822     -0.18304185031781
