25
Coordinates from ORCA-job 7929optt
  Br  0.95995845812014     -0.15230810923516     -0.21465935696350
  C   2.83281999410997     -0.20527484819332     -0.05304014277250
  C   3.47976112418979     -1.38849042630206      0.02464004456907
  C   3.16069822152901     -2.78694536615413      0.05420775364939
  N   4.24944157489489     -3.49980781363670      0.15179626359195
  C   5.35560533956387     -2.65257410049289      0.18859093342496
  C   4.92934952146182     -1.37218910732114      0.11495494014531
  O   5.61441009168759     -0.20529630394591      0.08858696245406
  C   4.94729069261418      0.94437023608304      0.02139525554059
  C   5.88140673948034      2.11653586222336      0.00803353346962
  C   6.13566018447535      2.69692627151524      1.41114875064777
  C   6.68722898060201      1.70742964198637      2.33583901547836
  N   7.11170987658481      0.92630330534586      3.05786799322034
  C   3.58489886593508      1.01866572001686     -0.02822340874669
  C   2.90042805328890      2.36344790088853     -0.10210723680613
  C   2.65939219785296      2.78248254150094     -1.48674490979783
  N   2.50887163262507      3.10784804444939     -2.57459215808523
  H   2.17545917920592     -3.22658941184004      0.01047989912566
  H   6.35733400908044     -3.03903664153034      0.26713482319708
  H   5.48930510746410      2.90498078341771     -0.63341396478947
  H   6.82537513430306      1.77990244300741     -0.41872170655474
  H   5.21237645785362      3.08282263106246      1.84694403374245
  H   6.83581704227000      3.52988676079831      1.33916406507075
  H   3.49455326009933      3.13640958294364      0.38269613258572
  H   1.94384826070766      2.32950040341257      0.41902248460299
