23
Coordinates from ORCA-job 7933optt
  Br  1.07157852960792      0.15928614430891      0.18207783546036
  C   2.91281247121241     -0.05812817089970      0.08572050446066
  C   3.56180853948255     -1.22394002793164      0.04298005451637
  C   3.25373333222674     -2.64164445264425      0.04579214225609
  N   4.33900244430130     -3.33509349200462      0.00910045743076
  C   5.45491605544994     -2.45374387024760     -0.01974266643503
  C   4.99560066406638     -1.18166546453244     -0.00298392767700
  O   5.65218018318319      0.01652068619092     -0.01217225223300
  C   4.95361002616893      1.17635735761708     -0.00888572917133
  N   5.45500578189112      2.31214933608505     -0.05949948882586
  O   3.57423057721205      1.10592478297505      0.06674315969806
  C   6.80746970506561     -2.99447643181472     -0.05440122458452
  C   7.93323461141773     -2.16555788393026     -0.05213255444109
  N   9.17970905910543     -2.61621725236914     -0.07963950925010
  C   9.36432542667666     -3.93385783577789     -0.11101379732418
  C   8.31910130661336     -4.84740111163191     -0.11704813185049
  C   7.02066551527045     -4.37164679021356     -0.08851886686216
  H   2.26919557537020     -3.08627167089476      0.07342891082327
  H   6.46832414263242      2.26330195534605     -0.11011481151328
  H   7.81577165738394     -1.08839288081741     -0.02426980520507
  H   10.39406153236953     -4.27267358466436     -0.13111039413768
  H   8.52350669649992     -5.90923080998107     -0.14271375106202
  H   6.16915616679217     -5.03859853216771     -0.09059615407277
