24
Coordinates from ORCA-job 7934optt
  Br  1.06597534520097      0.09526351476218     -0.40877701573261
  C   2.89767432317003     -0.07706843664897     -0.15158130550730
  C   3.57743888102313     -1.21828707074544     -0.05526921134706
  C   3.32679736244156     -2.64884411644073     -0.07285889203181
  N   4.42186761669079     -3.29674805606626      0.14163951462680
  C   5.47500741121834     -2.36533531466496      0.31208511097065
  C   4.99496425755191     -1.11713663254362      0.19480033976641
  O   5.60951740259041      0.09578116866342      0.28589924567170
  C   4.90168615461265      1.21534232735741      0.06920087844656
  O   3.52303814343374      1.10648793542097     -0.05108829274624
  N   5.46326969931678      2.32464323848153      0.03918295108013
  C   4.69295597491833      3.50300376880375     -0.24837689852779
  C   5.52899343754118      4.74497407728826      0.10214658270214
  C   4.77363744463754      5.98455006782879     -0.04630084234162
  C   4.12510554355484      6.98371131618639     -0.16844858533229
  C   4.26901615732345      3.54602599138004     -1.71267951260253
  O   4.31381745171017      2.60282860473765     -2.44697191117395
  H   2.37454845098473     -3.13279958477773     -0.23551935506711
  H   6.48095872911275     -2.69776393824651      0.50443447248060
  H   3.75838754740974      3.54652102822403      0.32812008989040
  H   6.42293363356169      4.76261687986715     -0.52517524871883
  H   5.86807490356585      4.64086749888072      1.13337316606042
  H   3.55886271898455      7.87817912614379     -0.27404342221380
  H   3.90347140944483      4.53018660610816     -2.05579185835287
