17
Coordinates from ORCA-job 7939optt
  Br  1.12568167789207     -0.09421212084316     -0.01962871837001
  C   3.00182573650957     -0.07044082818331     -0.01833519191904
  C   3.68400001886901     -1.24044458100644      0.07156420201681
  C   3.26242043795911     -2.60555415650750      0.18004017350007
  N   4.28770752949739     -3.41224105270845      0.25140963183599
  C   5.44442254302161     -2.65593915582894      0.19608912901946
  C   5.14602189376305     -1.33088683881717      0.08556297360351
  S   6.15145140038572      0.04634812126916     -0.02330366646729
  C   5.03392638617950      1.29850001507498     -0.12122278287788
  C   3.66277542256698      1.20179780828049     -0.11327921580173
  C   2.92081681464300      2.41045101485352     -0.21114407590093
  C   2.32147151496071      3.44959811633531     -0.30165244761804
  C   1.63101248890617      4.63678710126436     -0.39483814941278
  N   1.05615268660553      5.62985607067458     -0.46997842527863
  H   2.24154997731361     -2.95632516223062      0.20511728449700
  H   6.41411244737418     -3.12510776714064      0.24203865231054
  H   5.49265102355272      2.27581341551382     -0.20043937313705
