21
Coordinates from ORCA-job 7942optt
  Br  1.39152596677191     -0.10172969534967     -0.96081742438817
  C   3.20361630541973     -0.18926875687648     -0.44449534741303
  C   3.72649310070205     -1.36141639354585     -0.00204544788274
  C   3.20676641631612     -2.67591528405595      0.20907951615605
  N   4.13726062254488     -3.48107548590953      0.65160047657945
  C   5.31948998680041     -2.76813816473104      0.75719174071636
  C   5.13242688726280     -1.47326810760762      0.37802423631141
  S   6.20265884399726     -0.14068147374834      0.29816518014880
  C   5.13612912342109      1.07776752941632     -0.26787146958539
  N   3.87132121831950      0.97329858830808     -0.56247896197193
  C   5.75345803055383      2.39280781551517     -0.42299126979630
  C   5.16579766946760      3.61028933253837     -0.70945263053384
  N   6.21520388356063      4.45303809971834     -0.72586330253422
  N   7.35596068416700      3.83414366768317     -0.47439335732201
  N   7.08888510222925      2.58594885219006     -0.28736567459855
  C   3.79713017045213      4.11505661242564     -0.93348394403395
  O   3.61460309301324      5.28311140409847     -1.15887262460435
  H   2.18892991205180     -2.99561889481794      0.04100521136995
  H   6.22283886513313     -3.24456339205253      1.10251031134725
  H   6.18526127417105      5.44848737717044     -0.90088043763650
  H   2.98824284364453      3.37772636963086     -0.87356478032827
