24
Coordinates from ORCA-job 7946optt
  Br  0.41016633209998      6.55759689155754     -3.22666585888616
  C   1.01637392125111      8.24574430049600     -2.65899085319290
  C   2.00039842392441      8.35906442575367     -1.73985415870209
  C   2.40957150543610      9.67928841194994     -1.24145359695519
  N   3.40097156922616      9.71846239025423     -0.28139363991072
  C   3.48558894461946      8.67636703352939      0.73366355095614
  C   3.47751127505676      7.32627061939869      0.06393356485035
  N   2.24668399544193      6.52342265963078      0.01441824365047
  C   2.72956418081927      7.17344346618493     -1.21019742187569
  C   3.53114256775500      6.24880020110694     -2.11969447872906
  C   4.72708941101960      5.89724452538191     -1.26818078818836
  C   4.70677435301109      6.49413056872124     -0.08203950879798
  N   1.95193950652499     10.80694382148476     -1.65713663116870
  S   0.83446779055192     10.97293897310216     -2.84463717951340
  C   0.30969755158175      9.36714096078873     -3.31738419806299
  O   -0.56069560424152      9.23645906706612     -4.14082212559706
  H   3.55335170172077     10.66180152816470      0.04731130214722
  H   2.66578014730078      8.74963038004307      1.45878600928564
  H   4.41937884698510      8.81525761003791      1.27649310682918
  H   1.46289905565604      7.05066101766396      0.39439135665236
  H   3.81779077213604      6.75189274937544     -3.04706763412205
  H   2.95851004758533      5.36112677817269     -2.38880789355916
  H   5.48107819907728      5.19540485742102     -1.59815048888292
  H   5.44496550546062      6.38290676271410      0.70047932177308
