21
Coordinates from ORCA-job 7947optt
  Br  1.32274606456495      0.11560462800889     -1.42619334989170
  C   2.99920749099184      0.04352558501989     -0.54851372872320
  C   3.59843876154373     -1.12512054021897     -0.14969898180918
  C   5.05636616929027     -1.08596312003094     -0.00573972907860
  N   5.77361404434157     -2.23944306104548     -0.25004428005123
  C   5.14551538734448     -3.35611142682843     -0.35709504490917
  C   3.72820432133617     -3.53713008740470     -0.15471020657285
  C   2.94207515635688     -2.42082996166698     -0.02566248343560
  C   1.54525305751299     -2.50366191660164      0.33859499292701
  C   0.86917438501740     -3.65742086621616      0.39641665919721
  S   1.51010199125003     -5.21731767637373      0.06040082285346
  C   3.25654157895689     -4.92742955250818     -0.07011996068229
  N   4.07468910685468     -5.89430383275311     -0.12901722917827
  N   5.77603093011981     -0.03933351774234      0.26187689440074
  C   5.28153819879251      1.19862739365012      0.45332078645236
  O   5.77137562918877      2.11485867083838      1.03798879333689
  S   3.71523304392072      1.57910084052430     -0.45865179801373
  H   5.73095912664107     -4.24180428416658     -0.57789284390329
  H   1.02737507868918     -1.60114728609050      0.62269908171327
  H   -0.17406348293840     -3.67752695366569      0.68488490185177
  H   3.63062396022443     -6.80717303472816     -0.06184329648361
