24
Coordinates from ORCA-job 7949optt
  Br  1.19299905608185      0.14866616605668     -0.63717604161874
  C   3.01048266814972     -0.13393421213057     -0.29892698718251
  C   3.61940831650396     -1.33076103239403     -0.11290460485071
  C   5.07373455319579     -1.28854734134360      0.04563786144228
  N   5.72529699386366     -2.47615587593970      0.23512149560261
  C   5.20408601528226     -3.72605126381163     -0.28620118229301
  C   3.71816367784344     -3.78376004815057     -0.11573634642855
  C   2.99229404615628     -2.64321682720667     -0.05053531977497
  O   1.66109227575794     -2.67131854322252      0.10024478717574
  C   0.90999979466826     -3.84083665536573      0.14408793731081
  O   -0.27489097627419     -3.73292518548887      0.24936394086674
  C   1.67844056301549     -5.06733960871890      0.06447057215757
  C   3.01942540213770     -5.02536503714606     -0.05552311488483
  C   5.72239579660008     -0.09976320239725      0.06015086417736
  C   5.02031322329134      1.14520549094231     -0.07351465501802
  N   5.43156311520468      2.33601056816759     -0.04673094763396
  O   3.64408432492507      1.02760635854909     -0.29665834468328
  H   6.73060154965420     -2.40489002891072      0.25468090976259
  H   5.66656038596634     -4.54581788778087      0.26580309850408
  H   5.46750468034769     -3.85731587962422     -1.34492747214867
  H   1.11566700238024     -5.98731645288781      0.11204396790096
  H   3.58899968325887     -5.94720185982449     -0.10715040603828
  H   6.79603719613930     -0.05427132892804      0.17967100455650
  H   6.43374065585000      2.36129968755663      0.11370898309829
