34
Coordinates from ORCA-job 7955optt
  Br  3.00887031425524     -0.63911971942627     -2.45438722163884
  C   3.07376342138349     -0.09899569192017     -0.65085436453908
  C   2.81103301259287      1.16947560225278     -0.26785078103643
  C   2.40981211887560      2.21192592118451     -1.29375049454326
  N   1.06371334412739      2.03395214119484     -1.81622699974008
  C   -0.01458084880995      2.91148307171208     -1.40656167392869
  C   -0.30590018633975      3.13161663508428      0.08976225655804
  C   -0.28801947526117      1.86333066655212      0.96376660509268
  C   0.26217638269588      2.31557251355128      2.32209917181122
  C   1.29165749067800      3.40330650291260      1.98380085101554
  C   0.63991932212018      4.13557653020703      0.79969209296953
  C   2.72682186340154      2.87253342478645      1.73804420664593
  C   2.91198035097881      1.49359486151776      1.15219321906973
  C   3.23777714921396      0.49704605643142      1.98430919069446
  O   3.46168344251468     -0.77679581568358      1.60866287562724
  C   3.41529214419063     -1.16549338491260      0.29004555977716
  N   3.65181531215262     -2.35912671922486     -0.03688611076008
  H   3.13036793641684      2.15571110685449     -2.11433524878391
  H   2.49432935169342      3.20602967687589     -0.86385786948183
  H   0.79748001740152      1.06231140810579     -1.86263400318986
  H   -0.91335040554549      2.51111588000847     -1.88009852650045
  H   0.14899139169854      3.89694784256912     -1.85678544943801
  H   -1.31183539151730      3.55739614053496      0.12023082889052
  H   0.37147605205019      1.11153746649617      0.52668951274974
  H   -1.27436716610200      1.40692502955092      1.04947009170047
  H   0.68219524729659      1.49386101237809      2.90470216520304
  H   -0.54076702735586      2.76202187541145      2.91371530877634
  H   1.38836719573182      4.09970321221045      2.81850879725153
  H   0.04951431359480      4.96629388618550      1.18949886117603
  H   1.37267310768107      4.58223676091804      0.12578675993222
  H   3.22611871864162      2.85149804000413      2.70890853024203
  H   3.27703578163433      3.60661258338100      1.14330859220680
  H   3.36008719522020      0.61788388840947      3.05194509595181
  H   3.86686852268966     -2.92196840611364      0.78308817023846
