26
Coordinates from ORCA-job 7957optt
  Br  3.87070846853367      0.82994971904966     -3.71025542643668
  C   3.59303365753427      0.75310363080295     -1.85008158199575
  C   3.46332300495933      1.82761722962995     -1.05799185758272
  C   3.41542907264764      3.27700576862802     -1.52697716785189
  N   2.51788592113036      4.20186544137076     -0.85739781591233
  C   1.06736073677113      3.97464482876964     -0.87695216676864
  C   0.64360744393637      3.11762687966248      0.28842126072877
  C   0.70110978813808      1.76267712304811      0.32038223074532
  C   0.96589371760127      1.23110810802327      1.62142274057372
  C   1.80137978606218     -0.03022178260328      1.73512843937871
  C   2.79210632137500      0.12945895619092      0.59518024304677
  N   2.87849901829284     -0.81591840822428     -0.25365687576272
  O   3.54728187986105     -0.52409508210342     -1.44607609079029
  C   3.40443786927920      1.48704123460578      0.35994184362874
  O   3.73540839338493      2.21897478437604      1.26347337741683
  C   0.90151756683696      2.19856148066571      2.57464047038821
  S   0.64304059177762      3.74837943673715      1.89270369703893
  H   3.17827915815753      3.27568562759721     -2.59133094711277
  H   4.41922120078001      3.69657225714570     -1.42886068132132
  H   2.83404790428406      4.37853374391217      0.08889282229526
  H   0.80151316784549      3.47925124939378     -1.81292618586122
  H   0.56759316755661      4.94432167574625     -0.86268406574269
  H   0.74369165737091      1.17070529540944     -0.58438953775279
  H   2.30816439404036     -0.05113695473031      2.69942453472431
  H   1.25934102480540     -0.96383436867854      1.59032810441007
  H   1.10712508703771      2.09812212557480      3.62864063651618
