31
Coordinates from ORCA-job 7958optt
  Br  2.16849630103749      1.06498411490789     -2.38023703407732
  C   2.54921233246870      0.88206890858087     -0.54034723590820
  C   3.33389769481910      1.76406501837619      0.10599465935552
  C   3.35695243109647      3.24516561008865     -0.14643587165722
  N   2.21026937188472      3.87275799894071      0.48611879238999
  C   0.90806157550370      3.93116642127871     -0.17133854082729
  C   -0.31571911289076      3.05141416941697      0.27192025279739
  C   -0.57193864114999      1.71223694424302     -0.44416806378546
  C   -0.24477481629047      0.58288572649302      0.55879177520215
  C   0.21636567129419      1.34115769004059      1.82903132114966
  N   -0.39176746846880      2.65639066362769      1.67573591067190
  N   0.66335252293098     -0.50670345027240      0.06816352119704
  C   2.01451771330787     -0.19668456116299      0.25560202405264
  C   2.75900298117963     -0.65220326065721      1.28975311659982
  C   3.91392845822343      0.09550289560617      1.73588490584336
  O   4.72887663108210     -0.20453784783233      2.55321560877772
  O   3.93651162176923      1.41904581755673      1.25792064513391
  H   3.32750312870697      3.45196040980844     -1.21437432604906
  H   4.27417928080701      3.66667868944828      0.26500027172180
  H   2.17134356724959      3.72086004105464      1.48430491339450
  H   1.06710127695792      3.77913633392307     -1.24141271655417
  H   0.56037191363244      4.96306477773849     -0.06122111504324
  H   -1.16666823805322      3.70428486232965      0.06232471297710
  H   -0.03332008607382      1.61766527989000     -1.37619222563670
  H   -1.63162396616918      1.65326925695786     -0.69003399878499
  H   -1.16919404928801      0.05804687470303      0.79029488266795
  H   1.30726539378724      1.38322767826403      1.88538043646890
  H   -0.14076384252138      0.86021541574812      2.74140097974631
  H   -0.04046745877991      3.34586557030412      2.32721774255859
  H   0.43709977761423     -1.36247183572512      0.55959863582816
  H   2.40492803433252     -1.42451621367692      1.95910601978922
