29
Coordinates from ORCA-job 7959optt
  Br  2.45084428509380      0.33826886333381     -2.41525762667843
  C   2.63895066637990      0.54327906353374     -0.54432229643883
  C   3.23153838815811      1.61112346170938      0.02246811021094
  C   3.39579478772120      2.96586733866974     -0.64505101357981
  N   2.24065608923433      3.79257254995815     -0.35857804280985
  C   0.90115878801333      3.40041623430924     -0.78790512986313
  C   -0.12886486013322      2.90978037540334      0.28310571213122
  C   -0.64090810500026      1.43651670479538      0.17579601758610
  C   -0.72431172532886      0.91187624775329      1.62563470225171
  C   -0.48562144163130      2.17897837665229      2.46454570038761
  N   0.31484165614042      3.09907771720997      1.66277907311959
  O   0.20395719137398     -0.17868166572151      1.92341990956929
  C   1.47182748278070      0.09290168509864      1.58212495876966
  N   2.19660475421708      0.81100678600700      2.34544709037813
  S   3.50319520513346      1.64018792988928      1.73599827310487
  C   1.90781757523117     -0.45736908543037      0.24691142442469
  O   1.53756694561761     -1.53195448211421     -0.14503513872092
  H   3.50503977932653      2.83252192691122     -1.72034292950852
  H   4.28479410100977      3.47895447888539     -0.27788020083437
  H   2.26803049258537      4.24108023233236      0.54502094351155
  H   1.00870300754592      2.63516925449563     -1.55691481869843
  H   0.45597737232227      4.26604068086589     -1.28138738469898
  H   -1.01106463629178      3.54369572176168      0.16159766328708
  H   -0.01252738552317      0.80806954822139     -0.45268758932728
  H   -1.63089439678713      1.41184888376856     -0.27815512368270
  H   -1.68286664379360      0.45192173739849      1.84647740395690
  H   -0.01007265589539      1.96291228394700      3.41877062790590
  H   -1.46075521447415      2.63719437055379      2.65579273777254
  H   1.29258849697390      2.86174277980141      1.75862694647346
