28
Coordinates from ORCA-job 7961optt
  Br  2.64998185655903     -0.56811861801918      3.14603945971767
  C   3.25441386725567     -0.11061831412461      1.41903577125946
  C   3.46356599130344      1.17551132042126      1.04746806173747
  C   3.01695728017749      2.37303044314640      1.88377957770247
  N   1.57151636246270      2.60185488734038      1.90950892098699
  C   0.86431309313050      3.32799617600256      0.85096257130109
  C   0.66171462423202      2.57262804154603     -0.43047451834862
  C   -0.22905505479703      1.65280734136371     -0.88257335388432
  C   0.43124565598779      0.92454033058978     -1.93423281523627
  C   1.66509951187163      1.48036543211434     -2.04752419132091
  N   2.94747126066261      1.01209003120853     -2.45927249904322
  C   3.52332556955142      0.53577119772051     -1.23754839034552
  N   3.31511473372576     -0.76221252367334     -0.86477422499476
  C   3.37614130079219     -1.21745863264555      0.46814312372786
  N   3.41466552696503     -2.44282771164654      0.80863975836114
  C   3.85921816733241      1.45131049021135     -0.29980218447398
  O   1.75936189404516      2.54004879864184     -1.22337986845401
  H   3.49550458138136      3.27584358671517      1.50180975339623
  H   3.34140502290547      2.23432866510413      2.91549137812701
  H   1.07685422593202      1.76222754948849      2.18433483270233
  H   1.41792326657961      4.24590291398343      0.64284015775016
  H   -0.10764268845167      3.61662059181112      1.25224635285084
  H   -1.20112132499997      1.44528611697863     -0.46707630852344
  H   0.06989044418495      0.04973774478014     -2.44841530839015
  H   2.90153005580114      0.33937117583151     -3.21337749245542
  H   2.99386258190034     -1.42770628334991     -1.55122624502361
  H   3.46439960131989     -3.06498823724226      0.00528084632887
  H   4.00734259218904      2.47065748570207     -0.61190316545537
