30
Coordinates from ORCA-job 7962optt
  Br  0.91104413247331     -0.10219660368724     -0.14644054508202
  C   2.79341062935733     -0.12278243730923     -0.28403240898279
  C   3.50914595090651     -1.29289929985905     -0.15669599221631
  C   3.06116575327295     -2.71812914420049      0.10647197688644
  N   4.27646500175639     -3.52338213791725     -0.11985276431646
  C   5.44923575611415     -2.63416125262270     -0.02983393711374
  C   6.10039892656371     -2.75347135038430      1.34352413964839
  C   6.67984863861787     -4.12589518284419      1.65678853854726
  C   7.79920460541995     -3.76325190312358      2.63045857242481
  C   8.31891728565156     -2.46175752516618      2.02773068225913
  O   7.19669924715746     -1.84556843413372      1.39661583463011
  C   4.88951134922681     -1.24964960525591     -0.25287629781419
  C   5.51434020251158     -0.03514007526716     -0.47924314271565
  N   4.82055883721247      1.09260762516498     -0.62862965224397
  C   3.49755410834010      1.05161291944816     -0.53323087117619
  C   2.54328933662426     -2.85928441721573      1.47448819335769
  C   2.11742921169798     -2.95781725366350      2.58868791111852
  H   2.27230292976576     -3.01838243985897     -0.58707431151014
  H   4.22914742619382     -3.93437566711218     -1.04179510525457
  H   6.19309595336561     -2.90977287447239     -0.78079613284990
  H   5.35938667674832     -2.47463073682118      2.10430355459686
  H   7.09321208359873     -4.57057337633215      0.74692857156472
  H   5.93475608815489     -4.80496406198163      2.06357015331551
  H   8.57224260498117     -4.52525441854811      2.71316694154587
  H   7.38734540233918     -3.58265674753935      3.62493170858588
  H   9.08852173212352     -2.65452279158301      1.27408866947082
  H   8.72442907705565     -1.77256386972142      2.76875089216835
  H   6.59327352337192      0.03735915478247     -0.53959952279960
  H   2.96332133117676      1.98606783321741     -0.65993599402610
  H   1.73774619822021     -3.04556392599239      3.57853033798125
