29
Coordinates from ORCA-job 7969optt
  Br  1.08016793274426     -0.06563079190684      0.28367516519745
  C   2.95653461082290      0.07955642872555      0.16015942094719
  C   3.58585001133395      1.27364699751377      0.10507346764147
  C   2.83082037868851      2.58914070629835      0.04246546119946
  N   3.65723442144842      3.77191981168798      0.20167402980403
  C   4.91023603629801      3.66613171495149     -0.51708893733193
  C   5.78598722977595      2.53162255665764      0.02485618307754
  C   6.30656627787480      2.79918965217217      1.44797658803445
  C   7.68693446594229      2.14826799308747      1.42580213008455
  O   8.12661118145613      2.23110011721901      0.06501855573570
  C   7.08504428273580      2.43177689421668     -0.77063612075319
  O   7.21423694829426      2.52743365388670     -1.94999742370810
  C   5.02656084106408      1.21430156682191     -0.01920804255943
  C   5.67468253565337      0.03091999555830     -0.12066693482157
  C   4.98213646454774     -1.24347156891523     -0.07048295208072
  N   5.45022288953571     -2.42796908175637     -0.15262054013375
  N   3.60498445256428     -1.10942041868868      0.10924296996641
  H   2.04318443719524      2.60947602715997      0.79507367079653
  H   2.33114941974160      2.65492871842120     -0.93051365050425
  H   3.82468309291811      3.96567694476035      1.18179406423426
  H   5.45268103514504      4.61074289293762     -0.45085510613908
  H   4.70148151658150      3.48140296049314     -1.57354800677322
  H   5.66905128469978      2.38473391722771      2.22694560678404
  H   6.40111610043583      3.87644360026736      1.60454045532067
  H   7.64936927596790      1.09752996155566      1.71709211539167
  H   8.41957158747023      2.66409899234006      2.04150342928223
  H   6.74869532280037     -0.01304862262633     -0.25782610009860
  H   6.45676197367573     -2.41178389850428     -0.27945144964734
  H   3.08544399258812     -1.97471772156241      0.15600195105355
