30
Coordinates from ORCA-job 7971optt
  Br  0.89699839808543     -0.14365556819284     -0.42650130411506
  C   2.76338529040928     -0.04194064668318     -0.21939500993051
  C   3.55349904435599     -1.12741807982820     -0.19532280020358
  C   3.24613030602480     -2.58696352576148     -0.30749316666570
  N   4.48292356427016     -3.19021714224267      0.20395699556091
  C   5.61494198032273     -2.29052059635702     -0.05509805430629
  C   6.71566385606007     -2.46017114241737      1.00331769075062
  C   7.15094016459393     -3.90825301853664      1.21964927126645
  C   8.04428510548413     -4.36554592001379      0.07966791972509
  O   9.12764978277985     -3.46446610672417     -0.06076993033629
  C   8.67205309884887     -2.17314839741826     -0.32634022072860
  O   7.85081168294021     -1.65856841089798      0.68872952698844
  C   4.95906165375013     -0.92857697064995     -0.03872708074471
  C   5.51259836912797      0.29718876194737      0.09094456901392
  C   4.66761866546908      1.47867151942581      0.07234595568864
  O   5.03054086285906      2.63169559376805      0.18341546990884
  N   3.29789205746955      1.20156962822915     -0.09509688985251
  H   3.03446187606467     -2.85466773847764     -1.35177432773882
  H   2.38862342186471     -2.88600835825823      0.29708517098273
  H   4.63675110258924     -4.11514679831093     -0.17370781965411
  H   6.03896032748629     -2.43933195831785     -1.05838683057611
  H   6.32429778463558     -2.05594565724806      1.93809173835915
  H   6.28055978274053     -4.55409915184568      1.33594157250902
  H   7.72677023791037     -3.95371562906637      2.14532394868585
  H   7.48799837328577     -4.41941858220956     -0.86792829518901
  H   8.47337514990340     -5.34691749682081      0.27336554752239
  H   8.14111018130860     -2.16650110371737     -1.28941984355815
  H   9.54259641199330     -1.52449251008434     -0.37405668570723
  H   6.57313550554425      0.45219460070953      0.22214903254946
  H   2.69736596182196      2.01437040600051     -0.10896615020484
