26
Coordinates from ORCA-job 7972optt
  Br  1.10298242644816      0.23525325419447     -0.27770356728546
  C   2.98420930487043      0.14511112148374     -0.06184796497723
  C   3.62281317107189     -1.08887796571185      0.05609838364364
  C   2.92262619756834     -2.41745956340945     -0.13084534643495
  N   3.81362506638780     -3.45355894324211     -0.62129219544675
  C   4.95862641841493     -3.64020619071559      0.24892301830509
  C   5.78550656851627     -2.36543278377541      0.51355371574440
  C   7.05813855037471     -2.24641673634368     -0.32306613498250
  C   7.83077221897178     -1.01119020041927      0.07182611675418
  O   9.01202056578055     -0.92889151689753      0.14043014005515
  O   7.07805141242457      0.09499876427449      0.39864311035852
  C   5.71971745705502      0.08382616788729      0.25521761536148
  C   5.07606732197730      1.30796723034895      0.10181493611558
  C   3.68935139434908      1.33231030273545     -0.03300928365896
  C   5.81700641181411      2.53390538381605      0.07880595946393
  N   6.37378883811628      3.53604579177188      0.05154033405041
  C   4.99736804801572     -1.10232599296530      0.28283712305461
  H   2.09917087891188     -2.29593780293905     -0.83311632821282
  H   2.48381529632049     -2.75353446164495      0.81427528650545
  H   4.10496874151409     -3.24345878037999     -1.56953477325838
  H   5.60116271664117     -4.41664720708042     -0.16868405358656
  H   4.57738627087677     -4.01906142798380      1.19984699533839
  H   6.08982829363142     -2.37144273373620      1.56596903074815
  H   6.80652219478971     -2.17037307565642     -1.38631685521310
  H   7.72920329057547     -3.09286545244113     -0.19126943552184
  H   3.18127094458196      2.28026281882983     -0.13809582692043
