29
Coordinates from ORCA-job 7976optt
  Br  -4.56057218573462     -1.86614572928456     -5.09525266931568
  C   -5.51484094704836     -0.86765382871748     -3.78191092829077
  C   -6.31823555676092      0.13914233783155     -4.14809712380470
  C   -6.12085817017172      0.93047187529795     -5.43557903528103
  N   -4.81159482933953      1.57946974471248     -5.48067384923854
  C   -4.40024496607302      2.30941340897303     -4.27945251834267
  C   -2.99754944734441      1.96145642782294     -3.73921256260430
  C   -2.88345293700681      2.37464517349951     -2.25698179181702
  N   -3.32573340010645      1.18856795622054     -1.49977654291118
  C   -3.23291483380130      0.20934980153914     -2.30571230634008
  C   -3.72821062941513     -1.19042784294680     -1.99867603868580
  C   -5.19885793326884     -1.13822294101548     -2.37223044459633
  N   -6.04161182693488     -0.99957484421745     -1.42407292095531
  S   -7.56823622152532     -0.38848270734091     -1.74106245387988
  C   -7.30848509396072      0.63186999103638     -3.16765569063103
  N   -7.99958316281224      1.66844547353243     -3.40767590560883
  N   -2.77118972148524      0.52590472590600     -3.57382927442746
  H   -6.90516677314493      1.68171599647172     -5.48762244462968
  H   -6.21307903807149      0.27854618077127     -6.30358145537607
  H   -4.10411538554540      0.92594849937055     -5.78455833223189
  H   -5.11374769900859      2.13827839235244     -3.46802287181684
  H   -4.41136794617086      3.38646789372333     -4.47325505294062
  H   -2.22260242596059      2.40087745485881     -4.36670005189485
  H   -3.50426460603231      3.23675959181014     -2.01350833229839
  H   -1.85015090182959      2.60664049115563     -1.98562347071190
  H   -3.65336487377780     -1.37391766966507     -0.93053732056246
  H   -3.16986555472205     -1.93700089241500     -2.56177582355948
  H   -8.64741022479835      1.88869534806382     -2.65207227648543
  H   -2.92869270814846     -0.11024030934693     -4.33689051076174
