26
Coordinates from ORCA-job 7983optt
  Br  1.03018868954359     -0.33234576415445     -0.15016084525072
  C   2.89788444505451     -0.22215326583596     -0.00766355654051
  C   3.68600340599497     -1.30135735686602     -0.07892356180945
  C   3.41101103088247     -2.72100912569438     -0.26026701880608
  N   4.50490222413804     -3.40035696262664     -0.27775196066455
  C   5.58867856764831     -2.50344858058508     -0.11291723695928
  C   6.97874758775511     -3.02987818754058     -0.12988509220603
  C   7.25142470549894     -4.06538064603720      0.98277635209543
  N   8.32294922900488     -4.85655725972920      0.41062504433908
  C   8.36745887917255     -4.82842820599528     -0.95409778457040
  O   9.07679137702426     -5.50932879799431     -1.65411737450537
  C   7.34551473105133     -3.79763993104486     -1.40881282930671
  C   5.13243955402809     -1.23626605661143      0.01069354842757
  N   5.80828442558632     -0.03900682622332      0.18307506454273
  C   5.25527036374076      1.20861043147479      0.30600494664912
  N   5.84425645779596      2.31284392641277      0.48035048482805
  S   3.47576394947858      1.39205772303362      0.21465834124749
  H   2.43221041034924     -3.16696435244800     -0.36688550203161
  H   7.68874130156805     -2.20752277445160     -0.00287911281726
  H   6.35245009623334     -4.66014436916291      1.16527461827786
  H   7.55690135936488     -3.58959042694502      1.91439620338661
  H   8.78300942895734     -5.60407377942148      0.90498238335179
  H   6.47589586239153     -4.33856620765956     -1.78934239697303
  H   7.74368704400953     -3.17684658389537     -2.20781174885215
  H   6.81638302047151     -0.07019091419108      0.23095027302912
  H   6.85715185325583      2.22754429419256      0.53172876111830
