25
Coordinates from ORCA-job 7984optt
  Br  0.88571898915112     -0.18216268205688      0.42903554964554
  C   2.75628606680308     -0.04936538617297      0.27419364366094
  C   3.52180140336696     -1.13434444789233      0.14871290452421
  C   3.16250299564022     -2.59893135255833      0.08181525991273
  N   4.36281671895602     -3.25415341904503     -0.45298921851328
  C   5.50444657278767     -2.43437461994880     -0.01506332139152
  C   6.69352043561569     -2.65119696627536     -0.87485875707289
  C   7.50475989213265     -1.81781823649078     -1.54912213966289
  N   8.46688831579161     -2.59884509946566     -2.17420490675363
  C   8.27362929966239     -3.94217841297934     -1.91335093035196
  O   8.91517997131048     -4.88796840093346     -2.31523181000062
  N   7.16803176935651     -3.94399194016194     -1.08614273502282
  C   4.96592481552375     -1.01381652953155      0.06658642146407
  N   5.69572899430497      0.03273543822865      0.09416097136922
  C   5.14336900378095      1.30820308100956      0.20629964825505
  N   5.80608356679746      2.38020896297974      0.23845742756891
  S   3.36602398648633      1.56628945458493      0.32174045160359
  H   2.29570383237464     -2.79845263804407     -0.54566825803499
  H   2.94633616805388     -2.98426720971216      1.08265277475254
  H   4.33107463416380     -3.21895873780280     -1.46814395790820
  H   5.74254241639861     -2.72904385392200      1.01802312199350
  H   7.49248715427844     -0.74556467140025     -1.60267083115277
  H   9.21759509220669     -2.27492631122296     -2.75727218729372
  H   6.72289836210628     -4.79140879707414     -0.77700352999642
  H   6.80164954294970      2.16933277588798      0.17504440840540
