21
Coordinates from ORCA-job 7985optt
  Br  1.11940146575977      0.10090761670353      0.10304182866779
  C   2.97616310589488     -0.06750078340774      0.09496081068508
  C   3.64757012541163     -1.22951754090726      0.09338659021838
  C   3.36788401935739     -2.64993205331223      0.09595753377802
  N   4.46686755212279     -3.33117418631455      0.09366517856827
  C   5.55257464355429     -2.43065098277026      0.08924031168677
  C   6.91532904864935     -2.89247681158557      0.08683719891266
  C   8.08760663365082     -2.23841819840301      0.08364141552163
  N   9.07283518998823     -3.21447587014106      0.08301098081006
  C   8.50228030486993     -4.46313133245931      0.08613444682498
  O   9.02048408466771     -5.54027926069731      0.08680293243009
  O   7.15162708767464     -4.24579382798426      0.08820532099797
  C   5.08189895235747     -1.16187686485053      0.08874878796520
  O   5.76120241681099      0.02654287603363      0.08586808538474
  C   5.08577340318023      1.19328819426545      0.08657825337869
  O   5.64186312774742      2.24542598312451      0.08350924280972
  N   3.68958965182778      1.09913093090438      0.09108613112451
  H   2.39280020617286     -3.11540532991727      0.09943659039617
  H   8.29419502755022     -1.18359231476481      0.08180607205085
  H   10.06782761263725     -3.07981454726600      0.08159273934652
  H   3.21622634011434      1.99074430374969      0.09148954844189
