27
Coordinates from ORCA-job 7988optt
  Br  1.26564732252526      0.28669762174421     -0.16730083697686
  C   3.15675058559924      0.07477303235091     -0.26737347762480
  C   3.68614415165534     -1.20606022333118     -0.42762513397142
  C   3.06288815033537     -2.56886167800922     -0.31919243857117
  N   3.94876556086709     -3.35629682418181      0.55155223598841
  C   5.27494003630450     -3.67335569236058      0.01673566833619
  C   5.92102750229266     -2.41929326694894     -0.60799456671010
  C   7.23669526772237     -1.83803867033536     -0.08474808009859
  N   8.30060970864454     -2.36123593222550      0.30319040175615
  O   7.14866170265703     -0.44852606013535     -0.13036434138572
  C   5.82668116445898     -0.11611450247050     -0.27790166827729
  C   5.05153592188815     -1.22606350748292     -0.49709355599948
  C   5.21658448635083      1.11363868056815     -0.12290250419095
  C   5.98831108510734      2.39003828042743      0.09188008339363
  C   6.57431968444545      2.88437041578918     -1.15396727118155
  C   7.04590094802515      3.27295617188815     -2.18311690825301
  N   3.87902970966831      1.16566538265980     -0.15327558397828
  H   2.93112684787817     -3.01176834325206     -1.31812428097393
  H   2.08265577101121     -2.50378954287286      0.14946285358474
  H   3.48760519630945     -4.20713131694205      0.84366878584000
  H   5.23534390173707     -4.45696669565855     -0.74937221828109
  H   5.89013403507343     -4.04384933240978      0.83912084583033
  H   6.10219705276275     -2.61131385577132     -1.67170396640996
  H   8.23851735604833     -3.37590621903536      0.27914723753753
  H   6.78670425269338      2.21554319313124      0.81735850515501
  H   5.30560375955090      3.13372768942906      0.50229768381176
  H   7.46361883838761      3.62316119543521     -3.09635746834954
