20
Coordinates from ORCA-job 7989optt
  Br  1.53236357305546     -0.35720189085092     -1.32859500883109
  C   3.16755514679686     -0.00326312754684     -0.48136848087029
  C   3.57083835606420      1.23846871419810     -0.11015965362356
  C   4.87816083594859      1.44621138753836      0.53216129854372
  N   5.08534522927167      2.70712086932425      0.81621040764478
  C   3.96387113769038      3.37678380518283      0.40166345945477
  C   3.85172461069631      4.83190839820245      0.60813758167663
  C   3.27139173640310      5.70116416634188     -0.42825890208208
  O   2.53750935199749      5.35216550623003      0.72625908023233
  C   3.03144931479429      2.53929319385839     -0.17077309107438
  O   1.82591606390703      2.91434571447591     -0.71051556789227
  C   0.74175016660977      2.80324312284878      0.10050021581549
  O   0.74412536972227      2.31298101702453      1.17989380127251
  N   5.78314220697200      0.47244926438690      0.81669327586676
  N   5.57216234507698     -0.73505751302040      0.55853198171664
  S   4.17539738494144     -1.33021906758273     -0.17928307038137
  H   4.58122979039427      5.24598687276546      1.29456355586843
  H   2.92203494672600      5.24842468482784     -1.34998567958400
  H   3.58962365878987      6.73583706205127     -0.48248832837385
  H   -0.12559122585803      3.22635781974388     -0.41518687537916
