29
Coordinates from ORCA-job 7990optt
  Br  3.39239265008860     -0.88082111190058     -1.89247485419399
  C   3.16938864395790      0.17708130257995     -0.35393555508418
  C   3.06468883429212      1.51185095032411     -0.35328657027178
  C   2.79421582730133      2.39916283528485     -1.54367198871168
  N   1.38598232079243      2.74243608822134     -1.67341649394031
  C   0.75228554903694      3.66714837462360     -0.73798377184512
  C   -0.09562837897919      3.14351683303298      0.47807590132696
  C   -0.28517370577963      1.62432157243436      0.62622392036678
  O   -0.30014437652590      1.34321376409969      2.02792922393344
  C   0.42070088770929      2.30067024063363      2.73252739882866
  C   0.37534232048150      3.58018373183398      1.89080023632846
  O   1.75451117191102      1.83777800524699      3.05440435521374
  C   2.42116817622704      1.30647511140612      2.00001233108596
  C   2.55205698970287     -0.01849831487665      1.86127703207140
  O   3.08035910016370     -0.58907593542523      0.74753371924943
  C   2.97662373989815      2.17686910053575      0.95610831987388
  O   3.24440873452775      3.35062594978995      1.11413513481209
  H   3.11974157093816      1.91668989961536     -2.46389959357741
  H   3.36000391123178      3.32298335750773     -1.42600117842589
  H   0.81398638607439      1.94706282021469     -1.91918471326043
  H   0.08407035784766      4.29779739668778     -1.32737564348885
  H   1.53903663638266      4.31920051920752     -0.35925278091911
  H   -1.08997468133201      3.56528928292190      0.33710951171481
  H   0.51414900400319      1.05861438604479      0.14443781938109
  H   -1.23688750785721      1.27699311253563      0.22630002758075
  H   -0.02411792949309      2.41194153958188      3.71810029893240
  H   1.33669268095446      4.08360374029400      1.89669816027782
  H   -0.35838207695253      4.24993077847028      2.33651950284966
  H   2.24150316339657     -0.74404533092643      2.59729024989139
