26
Coordinates from ORCA-job 7998optt
  Br  1.11375394151013      0.18406178103837      0.13021637444949
  C   3.00559073148766      0.10155393306258      0.01893466318419
  C   3.65063439388864     -1.12905834111592      0.12635807285314
  C   2.93534582610058     -2.46268152454138      0.17975327370573
  N   3.76196152098337     -3.57475010915260     -0.24964849051687
  C   5.02320546009612     -3.63364226672556      0.46072705661186
  C   5.86681243327118     -2.36150807807751      0.31920152881301
  C   6.88646347989287     -2.42782129305314     -0.80475351445225
  O   7.12285845694036     -3.38555678698510     -1.47078099067542
  O   7.56311352444383     -1.26981339489361     -1.03035232678908
  C   7.24123738904345     -0.13461736722189     -0.22188727193625
  C   7.92120202579677      1.02283805217946     -0.81180339880089
  N   8.42092237995831      1.96129736514848     -1.23359127312941
  C   5.74637130804700      0.06011160616942     -0.12235471330499
  C   5.08373074087856      1.26345931476336     -0.28065174898659
  C   3.69942739504834      1.28512252560520     -0.17841065701203
  C   5.04141347430460     -1.11207505706460      0.11677351160065
  H   2.04703345100772     -2.41994097198444     -0.44990898013532
  H   2.58367812567034     -2.65803623696906      1.19840380506688
  H   3.91789457361845     -3.54296926127706     -1.25128277206178
  H   5.59938094446965     -4.48813900864437      0.11080261082643
  H   4.79748470154186     -3.78844266545445      1.51817796718407
  H   6.45941838284239     -2.21822296136822      1.23361812481995
  H   7.66620669847850     -0.28465025786012      0.77820214568594
  H   5.62989620062808      2.17567202883577     -0.48510178626941
  H   3.15696244005115      2.21480897558644     -0.27764121073106
