22
Coordinates from ORCA-job 8000optt
  Br  1.06265996759217      0.09676374196051      0.08406484645526
  C   2.95117978469693      0.00133573688581      0.03462256615722
  C   3.59964709510972     -1.21675864199600      0.01586582242125
  C   2.96147754319802     -2.50499004419262      0.00968100500314
  N   3.59613624359586     -3.62955191954603     -0.00664604810426
  C   4.95778623057771     -3.59942626240305     -0.01576851087182
  C   5.65030348272124     -2.43119428446245     -0.01612524496612
  N   4.98096195788205     -1.23298458859179     -0.00506246871272
  C   5.72652340527772     -0.01660204587279     -0.01281762044008
  C   7.06175910020865     -0.06529214404154     -0.02434614448410
  O   7.76985166783147     -1.24128239723933     -0.02667996556051
  C   7.13637677820055     -2.43376605466816     -0.02373252145656
  N   7.75385870558324     -3.52722323272401     -0.02531129833182
  C   4.90551221497471      1.19196560558175     -0.00880633231995
  C   5.49541916959676      2.54098992995663     -0.03483508079004
  O   6.67874011813647      2.77442890255420     -0.06399957402542
  N   3.60813823920478      1.16405332720742      0.01737521308230
  H   1.87923604251337     -2.52444795231924      0.01689281128511
  H   5.49632134806271     -4.53414467788617     -0.02371498390813
  H   7.68316007497481      0.81083693420817     -0.03156314835094
  H   8.76154634200186     -3.37800254487710     -0.02891949249316
  H   4.73240448805912      3.33629261246582     -0.02517382958866
