21
Coordinates from ORCA-job 8005optt
  Br  4.74245708102257     -0.55157206288778      1.52422312678919
  C   3.64651901526184      0.17934207472964      0.19230702322659
  C   2.63333227754214      1.05220588882684      0.43246271912688
  C   2.46182352128428      1.64218854816651      1.77347708106089
  N   1.46195538862471      2.19669614477869      2.32415699375831
  C   0.23875142668734      2.40778902239645      1.71156026742875
  C   -0.03577147042383      2.46858388197998      0.40835059498110
  N   0.79637961412984      2.21486840648471     -0.70223018295373
  C   0.03786396337470      2.55740939775926     -1.83979272159702
  N   -1.13539334740216      2.98334795700094     -1.60206890806171
  C   -1.30993290053645      2.94463888786852     -0.19031222457824
  N   -2.33682035355963      3.26862869859702      0.46245459579585
  C   1.91466938501150      1.42277537887163     -0.77655491660390
  N   2.26772061360368      1.05540115404908     -1.96689711400241
  C   3.33367164998936      0.23657191838904     -2.16953087015037
  O   3.77941382345424     -0.12765230520786     -3.20243576118747
  O   3.97467529760738     -0.27049181945536     -0.99752330069704
  H   3.36162189335519      1.59666461991125      2.38161905157942
  H   -0.58047014168105      2.65137272829370      2.37642752512696
  H   0.48702829180070      2.43409511430668     -2.81363717695102
  H   -3.07049502914639      3.58013636514103     -0.17305580209100
