23
Coordinates from ORCA-job 8006optt
  Br  1.26580955514777     -0.33408631483878      0.78097735812594
  C   3.06469542366227     -0.03960960818128      0.33929252739464
  C   3.62006472426859      1.13876136812953     -0.03622928154628
  C   2.87595853912828      2.40366792554626     -0.28150652767690
  N   1.66470100684460      2.54510912176778     -0.66041148269734
  C   3.67926198049804      3.58982043006053     -0.06189589171534
  C   5.02537722691417      3.53780318242941      0.00337250898261
  N   5.76940911050062      4.69922805228347      0.16163493088698
  C   7.12356543300276      4.67855453306773      0.24002019585458
  N   7.86517351557643      3.64922133812983      0.10971242371549
  C   7.27022198729804      2.40505186658676     -0.16192114842948
  N   7.99983457521195      1.40601047699580     -0.45884559423960
  C   5.78712454255390      2.30320435237841     -0.10113177133763
  C   5.07234842470840      1.13997918795763     -0.09879734200891
  C   5.67241971021144     -0.18452144985634     -0.12241067007412
  N   5.07015526120837     -1.27465060327623      0.14920374063543
  O   3.72878110713494     -1.17400375812743      0.51205134920032
  H   1.20336673879207      1.65965385584777     -0.84133141906729
  H   3.15099646356482      4.53474188780425     -0.03863919773780
  H   5.28045441240987      5.57310003485863      0.26617156702341
  H   7.58298597305681      5.64514399868599      0.42631510657135
  H   8.97530078863590      1.70017349456462     -0.43507621063546
  H   6.71599349966990     -0.29635337281433     -0.37955517122458
