24
Coordinates from ORCA-job 8008optt
  Br  1.06182270596615     -0.14870458409991     -0.20481372158278
  C   2.93207347397941     -0.00061236019908     -0.02175092545204
  C   3.53279170756691      1.20437821001811     -0.10488569725408
  C   2.79435986027938      2.49843745864789     -0.31677743733897
  N   3.61698047912161      3.62975223100029      0.02590413379371
  C   4.93090789340269      3.64634436593214     -0.55726113727829
  C   5.68824619622340      2.40189064487436     -0.18209330052486
  N   6.94835641920794      2.42121532151677     -0.07659733205143
  C   7.65913605257291      1.23306959606093      0.24820101503759
  N   8.90802698589371      1.23292030865131      0.44490417290321
  N   6.93688442092586      0.04052852935001      0.33551794890894
  C   5.66541775562223      0.07634007116914      0.22320100974238
  C   4.87446908313964     -1.14422765747752      0.30071213789808
  N   3.60138272542562     -1.17570575464656      0.17994418968736
  N   4.92380894752067      1.24020701123408     -0.00023165222534
  C   3.15668042549362      4.60069171922080      0.86685634462006
  O   2.05791766179569      4.61239022916549      1.35718057988552
  H   1.90407470879859      2.52224052369176      0.30986057353131
  H   2.46441089001930      2.55793678265489     -1.36161730959273
  H   5.50018276423995      4.50473872750427     -0.20753668478091
  H   4.86766259035393      3.70049988395969     -1.65091012653782
  H   9.26238483259995      2.18024356146665      0.33174416785350
  H   5.42517477653333     -2.06287639970874      0.46733504994672
  H   3.90884664331745      5.38530158001321      1.04711400081086
