21
Coordinates from ORCA-job 8010optt
  Br  1.32091025997152      0.46470008604481      0.28672536790936
  C   3.06412981315439     -0.00308505607050     -0.15446393953345
  C   3.61865405623281     -1.19731214138811      0.07586793950378
  C   3.29401427261545     -2.47655529299032      0.64538002355160
  N   4.33810589510108     -3.24903877977852      0.60752891550470
  C   5.41751097984097     -2.57493377537162      0.02244353777829
  C   6.73439806027580     -3.25830150798317     -0.10368754215781
  N   6.91746542520658     -4.04749057693267     -1.30957366715993
  C   8.09737623926336     -3.78578921235870     -1.94416862272635
  O   8.57989829328208     -4.34386702204118     -2.89059824289285
  N   8.66139921578482     -2.69523541526833     -1.26232358031995
  C   7.91888862651386     -2.28386383308105     -0.18810838979391
  O   8.14118694183874     -1.36478698933106      0.54745900023826
  C   5.01690676526391     -1.32812640994911     -0.32066114625846
  O   5.65026940052986     -0.30826841299847     -0.90747593999041
  N   4.97593242755860      0.88632826079872     -1.12091379197615
  N   3.80123344368442      1.00956806876097     -0.76805450682623
  H   2.34488922378725     -2.78458355394654      1.05628914589215
  H   6.87688393166960     -3.87066832076636      0.79290167210551
  H   6.41664261838828     -4.89843235923137     -1.50152001450540
  H   9.51430411003649     -2.25425775611738     -1.56804621834274
