22
Coordinates from ORCA-job 8013optt
  Br  1.11159872871880     -1.25846157221766      1.66872696822500
  C   2.52325628451625      0.00519960485327      1.71420256475272
  C   2.32434978472847      1.27942205806603      1.23609924767897
  C   2.96552609581097      2.44092456396076      1.83546550687683
  N   2.54106267336567      3.64640240419685      1.74698313110468
  C   1.44712499490140      4.04698847826327      0.99530384151628
  C   0.82661425516786      3.45657486160182     -0.04434416354655
  N   1.11000742760073      2.24854795608409     -0.66970035421712
  N   0.46264743691410      2.14833847393239     -1.86418650966015
  N   -0.27641020680616      3.13291655308574     -2.05870522351446
  C   -0.17202657654821      4.04749701720608     -0.94845824843908
  N   -0.80561876034340      5.12535019950380     -0.80856977227467
  C   1.99243382275678      1.30725207057242     -0.18771332941008
  C   2.82262192338532      0.53950385900570     -0.92961504129845
  C   3.96356675265995     -0.23734313717731     -0.38620757145386
  N   4.89912828337166     -0.75666447019376     -1.04654214967154
  S   4.13625840349760     -0.52966413974733      1.42944091597694
  H   3.81729827777393      2.25562151518572      2.48858724328056
  H   1.06979904664706      5.03025094602815      1.25024656248957
  H   -1.41271890519812      5.28609237398707     -1.61241415362483
  H   2.79503486965378      0.60842873328928     -2.01051179813463
  H   4.77044538742553     -0.66717834948640     -2.05408766665611
