20
Coordinates from ORCA-job 8015optt
  Br  2.93903684332357     -0.99353621368486      2.52559990121215
  C   2.92919412177763     -0.06628546690612      0.88613870230449
  C   2.38301001217285      1.15387428184938      0.72130038305007
  C   1.95404790689258      1.91263151368961      1.90684168560916
  N   1.04073604353015      2.79283014975476      2.05672615372419
  C   0.26333913736450      3.33176144363024      1.07499574324182
  C   0.59161364756901      3.41500218812834     -0.23122773763762
  N   -0.08139555040993      4.24472885284092     -1.14102234187814
  N   0.47274469965454      4.23220707567420     -2.22692425518580
  O   1.61512473216850      3.34916778304895     -2.19317078847504
  C   1.66133543287155      2.80544399259416     -0.97511020880155
  C   2.49000654098034      1.78629470185938     -0.60521340433420
  C   3.42370299272513      1.23309125064838     -1.60342049482151
  O   3.73176562798946      1.77336256015823     -2.63061346307857
  C   3.95027181733781     -0.18759346784707     -1.33835619914133
  O   4.61259537642060     -0.79604462092977     -2.12890641160378
  N   3.56755097903641     -0.74144706338280     -0.12925032157532
  H   2.52452599341153      1.69482330813146      2.80753904529083
  H   -0.63990676311391      3.82818204925994      1.41049983535806
  H   3.88370040829764     -1.68849431851735      0.03157417674207
