30
Coordinates from ORCA-job 8021optt
  Br  2.63320197998341     -0.58699108678391     -3.19045673590292
  C   3.06870092382064      0.09771843543440     -1.48856210210936
  C   3.17925144102686      1.42858673902347     -1.23101112619532
  C   2.72419078451286      2.51344899110988     -2.17817879416359
  N   1.32103732295356      2.84612541877002     -1.95721864315011
  C   0.91593827083799      3.65208492248567     -0.82212153890049
  C   0.50368541339001      2.97928001038692      0.51188216134120
  O   0.37125263384482      1.59478979011162      0.39983378143781
  C   0.42649849914346      1.12128108596614      1.73218049074463
  C   1.46276279036277      2.04746944599628      2.40006177324477
  C   2.90225756266403      1.48541149581133      2.47679439794513
  C   3.29291474764497      0.99985003487332      1.11899398118913
  N   3.18607356929489     -0.32922271408632      0.84116741180250
  C   3.16516712880391     -0.90161844710263     -0.43380112164646
  O   3.15422794021574     -2.10860818340038     -0.55808751085701
  C   3.44160638034210      1.86732301076547      0.09269397351511
  O   1.44085629808859      3.19368409996031      1.56532070967529
  H   2.84226400140626      2.20760552223096     -3.21539106767693
  H   3.31783401638408      3.41556316933623     -2.02121599237260
  H   0.73195173613572      2.03106632846945     -2.07453449686081
  H   0.05115132381255      4.24145465613586     -1.13640462375905
  H   1.70902057364446      4.36577254554175     -0.59026022576871
  H   -0.45269716177647      3.40829878157507      0.84612041081911
  H   0.70656994781184      0.07035734716337      1.71439500634142
  H   -0.55051170023032      1.23165885475596      2.21354251277198
  H   1.14588232801905      2.32763803473189      3.40721729461456
  H   2.94453407485721      0.69174071443196      3.22591446483499
  H   3.55821823195821      2.29337044273774      2.80119623090207
  H   3.12976397299391     -1.00484695929784      1.59123786529261
  H   3.50139496805286      2.92370751286595      0.30169151289106
