28
Coordinates from ORCA-job 8022optt
  Br  0.69095137349121      0.36205704324475     -0.44727378036192
  C   2.59068751792165      0.36892040245382     -0.26338667796715
  C   3.33467064633333     -0.77972638257234     -0.56980115604828
  C   2.68827188149332     -2.04213493156056     -1.06260224798994
  N   2.46081615381095     -2.99449633357576      0.02212505704947
  C   3.38258902657554     -3.11822084244414      1.12583498667263
  C   4.82554199181713     -3.60683774263287      0.85898788511359
  O   5.79077583787749     -2.61641241355258      0.69891126066423
  C   5.72114877179816     -1.83782103722384     -0.48642744978621
  C   5.66455716913605     -2.77966703912969     -1.69304399966947
  C   4.93710127707668     -4.09314326216876     -1.48792581499665
  O   4.56936361335713     -4.77288575235164     -2.39853732664641
  O   4.81161095154648     -4.53537040867598     -0.22280253619353
  C   4.71277426887010     -0.69501838760485     -0.34866077950350
  C   5.23925996921949      0.50752934789673      0.11614969623206
  C   4.39832289661399      1.57697999251877      0.35314243944079
  N   3.08394297029109      1.50446156184850      0.16969283496662
  H   3.28496511749913     -2.45159076907581     -1.87942964031903
  H   1.72078983444293     -1.79984525664659     -1.49707398123952
  H   2.21117386375996     -3.90104560269107     -0.34964798708845
  H   2.93978099306124     -3.84400024916257      1.80910272952301
  H   3.45191219117921     -2.17589362389628      1.67255601266593
  H   5.16720414445432     -4.17928345912529      1.71959718625214
  H   6.69060728147975     -1.34274224443147     -0.52122972061140
  H   6.69046419654072     -3.08179613678411     -1.91891333787406
  H   5.27193393810054     -2.30382272470588     -2.58859291187807
  H   6.30174972758826      0.60719775198508      0.29658022939534
  H   4.78203239466404      2.52560850006448      0.70966903019781
