28
Coordinates from ORCA-job 8026optt
  Br  1.01668810933590     -0.02060514796020     -0.54518783987654
  C   2.88158409662078     -0.07608439722611     -0.30315955529879
  C   3.56295052625123     -1.21979407755771     -0.14860515832195
  C   3.13273061772688     -2.65235826476828     -0.11208146412991
  N   4.27772728646942     -3.27105192114888      0.55855662871285
  C   5.49641640882993     -2.54643392508799      0.19624106088770
  C   6.53460858544044     -2.77341517992073      1.28439630719256
  O   6.60076075395807     -4.16770383316195      1.56148845864255
  C   7.87468728159875     -4.38897698410943      2.07907853347612
  O   8.73547577484337     -3.48158263994275      1.40037120473300
  C   7.97532101580772     -2.46600534640600      0.91983090801416
  N   8.39984893830607     -1.47462366084795      0.28215223634408
  C   4.98375402440873     -1.12793443932547      0.04603806998055
  C   5.63322193979388      0.05078824177813      0.06877037910735
  C   4.89428608863358      1.29413974730559     -0.10979094887212
  N   5.33593177648097      2.49251008727291     -0.12242245410489
  N   3.51599699059267      1.12635655909633     -0.28809928472925
  H   2.96795224405005     -3.03271577186309     -1.13048556529646
  H   2.21731928538613     -2.80799607514253      0.45954786353318
  H   4.36080775923480     -4.26524645438656      0.39982961812981
  H   5.92646689004482     -2.87247898531314     -0.76337775596092
  H   6.25031394526284     -2.21897768134492      2.18834901647634
  H   8.18638011419878     -5.40826616873882      1.86636379557053
  H   7.91443393175769     -4.17192585217172      3.15248002265748
  H   9.41237658038305     -1.50659706422125      0.17526979814953
  H   6.70436607812093      0.11071241840378      0.19882759076085
  H   6.34156841773518      2.50230136708556      0.01211257744753
  H   2.99002453872729      1.97996544970322     -0.40749404322532
