17
Coordinates from ORCA-job 802optt
  C   2.56588836518404     -1.01727840518676      1.51891885827497
  C   3.63511396880355     -0.30193833403000      0.70456411596244
  C   3.34546053788692      1.18728673094176      0.54643200573491
  C   3.38624919635263      1.93417767287488      1.85253636266836
  C   2.46514307999024      2.78887410701324      2.27137004609236
  C   4.32124554663934      1.85702650421936     -0.40583574611237
  O   5.24465261249531      1.30606424751653     -0.93385867897525
  H   2.79020682120663     -2.07970025201757      1.61198077186933
  H   1.58723899372898     -0.92217779963967      1.04357195186124
  H   2.48554102405497     -0.59920564492268      2.52345454743131
  H   3.72412449566698     -0.74694560546907     -0.28775301014461
  H   4.61585346518906     -0.41738651001403      1.17285785359758
  H   2.35174913546583      1.33783727854935      0.10362031138403
  H   4.26376418875438      1.74414800277499      2.46653599330997
  H   1.57640495486721      2.99387684648686      1.68515521345179
  H   2.56369575769534      3.30728553513739      3.21623177055161
  H   4.12466785601858      2.93305562576542     -0.58278236695766
