26
Coordinates from ORCA-job 8038optt
  Br  1.04895873849033      0.29488321660036      0.21906862785527
  C   2.94412700520213      0.14198446622148      0.13827397927972
  C   3.52064539017067     -1.13155853982736      0.09378607174196
  C   2.69302318972046     -2.38666082651281      0.11727093015539
  N   3.40951608783698     -3.63530367663465      0.17612534547298
  C   4.66775540461414     -3.67796074243880      0.11646922743443
  C   5.60610377440361     -2.51004877145053     -0.02940214387107
  C   4.90485781843887     -1.18401791418939      0.04081089185571
  C   5.63489542397972      0.01057056555151      0.05261711391419
  C   7.14594887738807      0.03923480669925      0.07627744332436
  C   7.76534332889270     -0.62067008329776     -1.07545813004135
  N   8.24022722872000     -1.15963607437484     -1.96788254912032
  C   4.93431144889100      1.20228471022592      0.08907983302355
  N   3.60594186119481      1.26980042548191      0.12957190369768
  N   5.26015079278071     -4.93727159366742      0.19329808026245
  C   6.58211108507964     -5.27255929593073      0.05978573064955
  O   6.98299809671735     -6.40240261744177      0.15089886944227
  H   2.04170399999161     -2.40827333501554     -0.76224958850640
  H   2.01176358653733     -2.34973826549314      0.97154887277726
  H   6.13544460692684     -2.59582860982406     -0.98397560890791
  H   6.37787412394912     -2.56709189867817      0.74451813621595
  H   7.52763889029296     -0.44732663876852      0.97826740725092
  H   7.49307995039271      1.07245324061828      0.10097097914683
  H   5.46151129836424      2.15064954047353      0.08993855262555
  H   4.61581799452434     -5.70694667722888      0.33098810692842
  H   7.25024999649956     -4.42456541109783     -0.14459808260739
