22
Coordinates from ORCA-job 8042optt
  Br  1.05264169057397      0.13629413390197      0.18441597385449
  C   2.92622231583775      0.07259442475756      0.11393871498282
  C   3.71171682426224      1.20519361956535      0.07447045084842
  C   3.18522158526860      2.55450022588408      0.06846729774166
  N   3.91408367958390      3.61809552354123      0.03900854513001
  C   5.28295335975372      3.49768341185049      0.01206178489892
  C   5.91753438132835      2.30395026878602      0.01106024422796
  C   5.13904754890564      1.11143936983984      0.03979669577371
  C   5.68622074605401     -0.15609873129121      0.04391952716859
  N   4.91180027332585     -1.23953561505923      0.07023552137689
  C   3.49252880516106     -1.24885551856281      0.10499369615578
  O   2.92569111708138     -2.31904743176150      0.12311292064446
  O   7.04539078538145     -0.24876122295196      0.02826716542287
  C   7.74918601285558     -1.41013768184002      0.03380544414035
  O   7.27825232678521     -2.50703384720397      0.03076207032775
  C   9.16427889752266     -1.11942875427910      0.04530343455100
  C   10.34291184447727     -0.92287830538487      0.05525324194505
  H   2.10944012013284      2.68524906420351      0.08853847544139
  H   5.83326500355661      4.42852667714592     -0.00946463289862
  H   6.99609323356612      2.24273755956957     -0.01251314000618
  H   5.34124470371861     -2.15949345353956      0.06662329189446
  H   11.39427474486708     -0.74999371717132      0.06494327637821
