26
Coordinates from ORCA-job 8046optt
  Br  1.09392743469606     -0.20737823948630     -0.03445110292750
  C   2.94196666994473      0.11336028177931      0.10090922114720
  C   3.50581562458417      1.33828805172149      0.11729327439389
  C   4.95712239407903      1.29136399133740      0.04571705910422
  N   5.63483583448628      2.43510998355541     -0.12669259557250
  C   4.99922191159345      3.71024455674994     -0.39629343062804
  C   3.73397000637070      3.81439124134370      0.42765896680807
  C   2.74731290979677      2.67200777954387      0.11151295723704
  N   1.65269665963480      2.73689766534459      1.08162879648107
  C   1.83655931436477      2.32000492483274      2.38538374399768
  N   0.95178919891401      1.99922787412749      3.22927902595732
  C   2.17398407787243      2.89225707194479     -1.22572997671567
  C   1.72365070259203      3.07545690828190     -2.31928554465803
  N   5.66193541857541      0.18968721610577      0.12017061513633
  C   5.05983794986969     -1.00740168672651      0.24759775083752
  O   5.54893254784323     -2.07626725082417      0.40366508119871
  O   3.61514763686187     -1.01095476072864      0.14271293465115
  H   6.63017874332430      2.32258477356319     -0.24785031910157
  H   4.77062126619736      3.81455451305712     -1.46177555226526
  H   5.69237543090514      4.50318201560463     -0.12128961300259
  H   3.22340567112733      4.75820327803018      0.24552303522619
  H   3.99154965447663      3.76346327260275      1.48672827789598
  H   0.73745280745771      2.55639095407999      0.69599832697776
  H   2.88124433556971      2.29887775335990      2.69599086173707
  H   0.01133187495677      2.03893973142215      2.83323714837597
  H   1.31513392390555      3.22650809937726     -3.29063894229201
