22
Coordinates from ORCA-job 8047optt
  Br  1.08733894535421     -0.09753615428236     -0.17114190913952
  C   2.94706021551226      0.08364402871373     -0.05228844857927
  C   3.59603871942411      1.28123237843763      0.04120496710005
  C   2.97655402441118      2.57082761497511      0.08131798247543
  N   3.63591732156701      3.67291685382225      0.16050731396934
  C   5.02239852472091      3.59515345836910      0.20396547586593
  C   5.72933807840654      2.43643687870780      0.17262741189728
  C   5.03941490007371      1.18719884934740      0.09294857319393
  N   5.69044861263871      0.05650460240146      0.06767954694462
  C   5.01132068606815     -1.11952379511255     -0.00154837516550
  N   5.42930877142549     -2.29934755743727     -0.01734927896832
  O   3.56644400220238     -1.05131103824894     -0.07387284897383
  C   5.67950088817847      4.89716941405471      0.29033521352037
  N   7.00245524831118      5.04239616946039      0.33368920161492
  N   7.16438813638804      6.33701926280647      0.40515244905672
  N   6.07176071954052      7.07170581776063      0.41388645970183
  C   5.09940296017119      6.17650761634700      0.34086385892751
  H   1.89298596848385      2.63376932222712      0.04633604654474
  H   6.80931653907641      2.43881612530188      0.21153466896633
  H   6.44398356594734     -2.29034519443933      0.03297175773123
  H   8.08093865759365      6.75315473793968      0.44953324147281
  H   4.06168451450464      6.45761060884806      0.32864669184340
