22
Coordinates from ORCA-job 8051optt
  Br  10.08355705756998     -0.74026117696001      0.40463638252359
  C   8.19770001700681     -0.88570921228077      0.46882519332912
  C   7.50124990913094     -1.96171702007554      0.01570757799390
  C   8.07803043649615     -3.21449849051506     -0.55554949848182
  N   9.21499719290859     -3.73371580470909     -0.30644449138501
  C   7.20824934497833     -3.97404062935736     -1.46203325185466
  C   5.90089712194022     -3.71147233387288     -1.57569451986231
  C   5.31924181338364     -2.63866930697259     -0.81424595319540
  C   6.04534161821562     -1.82938943247614      0.00142041109132
  C   5.44489614775086     -0.74439023063698      0.76598410002262
  C   6.36807125309856      0.32747799841419      1.12947040136969
  N   7.63674206556744      0.26175307179910      0.98207702256338
  N   4.25079293544786     -0.61065918150327      1.23506551598194
  S   3.00734246248778     -1.66792915160915      1.29409305113792
  C   3.14736268609926     -2.83461074755826     -0.03863137269603
  N   2.49362191141156     -3.88660922348988     -0.18296065901448
  O   3.98948219350201     -2.39642276728393     -1.03831455122311
  H   9.74948770447341     -3.20270312885680      0.37565154703425
  H   7.68180750132890     -4.79531634640357     -1.98279717729666
  H   5.24138597703380     -4.28550447871667     -2.21236028834403
  H   5.93883725261653      1.21859447553444      1.57722780932919
  H   1.90790539755163     -4.10220688246973      0.62087275097658
