23
Coordinates from ORCA-job 8052optt
  Br  1.20685743075230      0.45150272268917      0.51346230581340
  C   3.02981954441467      0.09785980557143      0.24052200204925
  C   3.59644683284941     -1.12081404107200      0.07201588783587
  C   2.86880401174510     -2.41829936087497     -0.05555959525385
  N   1.65080060492829     -2.61858978454094     -0.38330275623705
  C   3.69141503288810     -3.60794627574883      0.18113456720308
  C   5.03019570506363     -3.57361189123864      0.21935285063311
  C   5.75405831349401     -2.33006499628689      0.10231739343594
  C   5.06293617991905     -1.16123110119821      0.05660287139987
  C   5.74665986665001      0.11160895738764      0.03073538758539
  N   7.13568432051196      0.06778981275778     -0.08938840462927
  C   7.84044074362824     -1.09885701839169     -0.05456848708535
  C   7.21703641039070     -2.28884918057700      0.05155585952283
  C   7.98157311476113     -3.49055516413866      0.08008461604918
  N   8.57257529856574     -4.47589759607923      0.10631223003586
  C   5.06087074676516      1.25510421715025      0.13113306685342
  O   3.68682953911376      1.25417945539506      0.28721679069199
  H   1.14998640505811     -1.76510393481155     -0.60347989379733
  H   3.14502283224804     -4.53932520363118      0.24222839380340
  H   5.59994928674237     -4.48868603884830      0.33029151162690
  H   7.64001800737293      0.93585868061936     -0.14933392883993
  H   8.91450637743921     -1.00932689570449     -0.12516695499441
  H   5.46551339469803      2.25325483157190      0.13383428629770
