31
Coordinates from ORCA-job 8056optt
  Br  1.46319162641863      1.06433811049813     -0.49916336494526
  C   3.27322979146298      0.48768936615631     -0.40766698209343
  C   3.61576158949029     -0.84300095086666     -0.65569707020209
  C   2.54739718833369     -1.84316337477259     -1.04580849639055
  N   1.89480507842016     -2.41027654376409      0.12986192009976
  C   2.54568797300622     -3.59009448322106      0.68126702040165
  C   3.86271418445930     -3.27427987926719      1.40908214591197
  C   5.18804982558962     -3.49323437743482      0.66780098845770
  C   5.29815952080819     -4.88011617766872      0.03533073809042
  C   4.89127990485562     -4.65623653901257     -1.40662413442811
  O   4.50247252433630     -5.45156220780433     -2.20377004740310
  O   5.02834268735273     -3.34252324704952     -1.70294351626985
  C   5.49201603884705     -2.60346274680015     -0.56362514923776
  C   4.96727114722039     -1.19056230643051     -0.50204995147623
  C   5.90549296272799     -0.22204450812531     -0.15671848812019
  C   5.53562751712278      1.09504659814855      0.05475665787962
  C   4.20586699983936      1.45458400311679     -0.06534724575303
  H   2.96934981147503     -2.61031971475946     -1.69577229499313
  H   1.79373361516609     -1.31608359884535     -1.62688334531719
  H   0.93210425351503     -2.62577135512879     -0.09022015165344
  H   2.70269073792858     -4.36838789303184     -0.08236406276820
  H   1.85292322497785     -4.01164709512164      1.41010621087038
  H   3.91892480062972     -3.91727595429160      2.29089168734263
  H   3.80823871077261     -2.24831722402705      1.77950452760718
  H   5.98395186071986     -3.32710827827557      1.39492467260796
  H   4.67373776363899     -5.64673711719549      0.48922583805745
  H   6.32953030425468     -5.24063137091788      0.02659161627303
  H   6.57859644868538     -2.53893109866091     -0.66513084734943
  H   6.94592452361383     -0.50719415701070     -0.05684902596068
  H   6.27769391610070      1.83947671105146      0.31049725511027
  H   3.88723346823027      2.47382741051261      0.10179289565163
