27
Coordinates from ORCA-job 8062optt
  Br  2.54254855919529     -1.08491236784978      0.11786038628545
  C   2.98768070478057      0.66158896849771     -0.40925824025805
  C   2.86341858624183      1.74030962037683      0.36631766416481
  C   2.20301879428983      1.89835818939329      1.73158889621688
  N   0.78080789155848      1.57520555546867      1.90930653632037
  C   -0.26510039548281      1.80117990955407      0.91177873156909
  C   -0.97025067726792      3.21180469552792      0.86459558931414
  C   -0.39309535234639      3.89681434775166     -0.33781819566761
  N   -0.69324775737941      3.53709834782994     -1.55257964036179
  C   0.41893000286583      3.54489861703370     -2.34971588540101
  C   1.60186655893371      3.87339992717349     -1.74040323449466
  S   1.19713066618561      4.51299196968534     -0.15941350701855
  C   2.80428705293788      3.00845512046093     -1.69400273830039
  C   2.96531928718667      1.87114230253520     -2.37874080518950
  O   3.39587264089368      0.73633317614602     -1.70490164044004
  C   3.40857975115264      2.93401312936266     -0.32743544256901
  N   4.20206111956593      3.81271406608838      0.10773359191647
  H   2.37320789014872      2.93633460616042      2.02314100799750
  H   2.73355129218395      1.28353093761476      2.46137169886547
  H   0.70724581017683      0.61951428784836      2.22248488515949
  H   -1.04282850180394      1.07570958354240      1.14919156924213
  H   0.07580762506532      1.56382778317059     -0.10368035095202
  H   -0.78202777752313      3.75032073715956      1.79322147578236
  H   -2.04272294347576      3.07159853153639      0.73711940758412
  H   0.34215619146942      3.09764688255051     -3.33135136223458
  H   2.63267437911731      1.64212160010032     -3.37978652000122
  H   4.48210860132981      3.61499947528064      1.07037612247013
