29
Coordinates from ORCA-job 8064optt
  Br  0.89336425009444      0.01124836114642     -0.26127835975193
  C   2.79634828569742     -0.05635073438870     -0.05451944851730
  C   3.44218353475148     -1.25199858517178      0.27381552996903
  C   2.69935027676558     -2.56648672146933      0.42391785022322
  N   3.03145475152297     -3.57468429837265     -0.57111027265277
  C   4.26014044186471     -4.30372826751668     -0.34697409961939
  C   5.56493455137313     -3.49599534705180     -0.33334821750972
  C   5.61787906807548     -2.43021764353266      0.74897862791513
  N   5.27284368826604     -2.89282957260044      2.11247247064196
  C   6.28545151100432     -2.17459499532840      2.88755723247030
  S   7.36456519580066     -2.16910787934941      1.42828004240674
  O   8.01597440740068     -3.45107613561713      1.35263604288009
  O   8.12883179150337     -0.98993775069877      1.13946785669131
  C   4.84182436194676     -1.16887716605515      0.39717648089456
  C   5.47305362044833      0.04560771660977      0.16620760675820
  C   4.70066650224890      1.15129226008141     -0.15327019927903
  N   3.38142851322409      1.10293852480387     -0.25717131795006
  H   1.63148807760616     -2.37808602117586      0.37683092042352
  H   2.90997499872139     -2.98555752759978      1.40835240412894
  H   2.98484217199942     -3.19402073103491     -1.50841737458129
  H   4.35237975670384     -5.06898396417755     -1.11895565181487
  H   4.15414341369788     -4.83989039976780      0.60117777542357
  H   5.70765316947092     -3.00801960541809     -1.30002008502745
  H   6.40020467265195     -4.18355239079058     -0.17940258739363
  H   5.45351793136127     -3.89081834583493      2.17676434555103
  H   6.67047986584055     -2.69808081195820      3.75780512685261
  H   5.97508561450569     -1.15664118757625      3.11991495857528
  H   6.54432577400854      0.14842341240060      0.23664005953785
  H   5.16160980144397      2.11602580744480     -0.32952771724592
