26
Coordinates from ORCA-job 8065optt
  Br  0.95607065561891     -0.14444097356071      0.18625692640530
  C   2.84351708390038     -0.08941829851341      0.03447174699273
  C   3.56495786904841     -1.27049872588065     -0.09502054568303
  C   2.89917389674609     -2.62932989357362     -0.14137424320361
  N   3.78127852735825     -3.72721415281713     -0.48671865400875
  C   5.06014660409564     -3.63451516781229      0.18207125412004
  C   5.83646515561937     -2.36273759154844     -0.22540201861777
  C   6.38326270528321     -2.54547768449471     -1.59470589059289
  N   5.86111230639592     -2.16813130249364     -2.69135932922333
  O   6.72108744434625     -2.66751707820600     -3.68629816095562
  C   7.73959195953430     -3.33756436874151     -3.08910923356307
  N   8.71340874464273     -3.92501322201514     -3.59484097861252
  O   7.51901904066196     -3.26630724384772     -1.74122246088931
  C   4.95211191402626     -1.13620752507298     -0.15135280074654
  N   5.58989160563886      0.03031128244703     -0.11651648038695
  C   4.86733481619238      1.13684542613034     -0.02239400530703
  C   3.48169226078885      1.13539140035102      0.06139731671491
  H   2.07422827630431     -2.60268093012213     -0.85362785045985
  H   2.44926070073003     -2.82479374350377      0.83845823935552
  H   3.91058471688126     -3.76930952458378     -1.49176301034929
  H   5.65593451599903     -4.52258815024747     -0.02911816906428
  H   4.88520861323426     -3.60119357292051      1.25983406703555
  H   6.68863615914624     -2.20551972834648      0.43909574903629
  H   8.69903897060286     -3.86083014369831     -4.60748462258131
  H   5.41434257141580      2.07262333201167     -0.00387086427803
  H   2.92464288578831      2.05711758106039      0.14759401886286
