22
Coordinates from ORCA-job 8067optt
  Br  0.88479433391467     -0.55656282752886     -0.28014409205266
  C   2.73025396635139     -0.29055361276800     -0.08943241318382
  C   3.58988388719054     -1.33350066520042     -0.03090596391619
  C   3.44378989108293     -2.75792770275857     -0.08742424308886
  N   4.60591642205689     -3.34431709576592      0.00993618319781
  C   5.59531080262184     -2.37871481527015      0.14337631922399
  C   7.02676170493851     -2.78647497425072      0.25389139266997
  C   7.54148182507095     -3.31296847502573     -1.06153150338254
  O   8.54082550521131     -4.30996463504763     -1.01407554673364
  C   7.25456583010624     -4.69821894553327     -1.45837102035395
  C   7.13537605384735     -5.03265520571069     -2.86478566871201
  N   7.01875557947909     -5.28859693421733     -3.97514844708947
  C   5.04010392660489     -1.13374649684930      0.12052055358284
  S   5.68553438767670      0.44300701587417      0.22731951456679
  N   4.41504765750416      1.43762279603267      0.12675587481341
  C   3.18248061278722      1.06984733000635     -0.00789045316597
  H   2.51845846066755     -3.30416342235308     -0.19268765211190
  H   7.13210725748799     -3.57537484357052      1.00174564717099
  H   7.64380109079821     -1.94331601907079      0.57251871204583
  H   7.67141671370069     -2.58771482420276     -1.86024017496273
  H   6.68305535920786     -5.32773954828604     -0.78653286003595
  H   2.44427873169292      1.86203390149665     -0.06489415848193
