20
Coordinates from ORCA-job 8068optt
  Br  0.91645005936896      0.02204942267103      0.02960803980316
  C   2.78277666234064      0.00498036814578      0.02824444178523
  C   3.45624435316699     -1.20578309249189      0.02654068576815
  C   4.89440039454507     -1.19530078930636      0.02605026797890
  N   5.55601675470768     -0.02091804580582      0.02696523475116
  C   4.91585701937841      1.16834595548629      0.02835254869275
  C   5.74510175658749      2.32394039104952      0.02882403726156
  C   6.49273842222917      3.25927946255028      0.02930741496840
  C   3.52272772527392      1.20215067239902      0.02906496338278
  Br  2.68620015808122      2.88117663771343      0.03117208639939
  N   5.44495749729309     -2.39117257314447      0.02450712494811
  C   4.38035807436682     -3.23702609469648      0.02386558742485
  C   4.63722214306498     -4.69438729759061      0.02179912002396
  O   3.77058421307928     -5.52316689990561      0.02052932430877
  C   3.14094204072910     -2.59093216110000      0.02510988855040
  C   1.85375565233438     -3.18737208112295      0.02455307737702
  N   0.79590186501020     -3.63325635991916      0.02411047557142
  H   6.56929892235941     -0.03764855077354      0.02649074373354
  H   7.13904437652852      4.10599088998538      0.02933635578765
  H   5.70942190955461     -4.95694985414383      0.02156858148280
