27
Coordinates from ORCA-job 8069optt
  Br  6.09540672927081      0.05460659587842      0.65111079366707
  C   4.98370274861769     -0.84793596278089     -0.63823701759657
  C   4.89201381418717     -2.22618416103600     -0.52939226684001
  C   6.20690132084022     -2.95244486363563     -0.45685113233175
  N   6.77021013434046     -2.65371433586229     -1.79658747725110
  C   6.73128074027198     -1.26137823548570     -2.27996525668096
  C   7.13660412304695     -1.24763355930146     -3.68127078106748
  C   7.43924005865106     -1.24150113356494     -4.83936636371497
  C   5.34506229423527     -0.54336729019195     -2.04678775913390
  C   4.62410088168916      0.02179929836780     -3.00915385932270
  C   3.27740559163777      0.63121812399443     -2.77987198665584
  N   2.15925649713046      0.18126428881181     -3.16236261927382
  C   2.02553341033617     -1.05502090201991     -3.84294682452490
  O   1.64247067957888     -1.09881427573800     -4.98345633677802
  C   2.46985904888890     -2.25382536468948     -3.09691807582386
  C   2.95343063598478     -2.10016461483156     -1.86378602615361
  N   3.87891452316180     -2.87578530767364     -1.19949049087862
  H   6.13498753032310     -4.03506554350763     -0.35141571365169
  H   6.85225581332031     -2.55472453058318      0.31869312613687
  H   6.36179144794391     -3.25629042449090     -2.50212280517880
  H   7.46363365667801     -0.69509949925814     -1.69817346706735
  H   7.72171120514868     -1.23339628874373     -5.86542009654649
  H   4.99542420132809      0.01683583807417     -4.03004573246547
  H   3.26655700633958      1.56128136180423     -2.20877216026671
  H   2.64993226998682     -3.13094442780729     -3.70580691166088
  H   2.75574151621221     -1.18875379673121     -1.31703942120169
  H   4.03257212084932     -3.82896098899720     -1.49656333773654
