23
Coordinates from ORCA-job 8070optt
  Br  1.18311478718177     -0.04387868684056     -0.47464745678941
  C   3.05150267228610      0.07018382820328     -0.27232188693712
  C   3.72795057273702      1.22323634608822     -0.03470873490539
  C   3.07307724436200      2.55281297348202      0.21724658958748
  N   1.97045631898687      2.74730144653524      0.81909010296977
  C   3.82924885984167      3.74830158584844     -0.17804718579039
  C   5.14859221223202      3.68927963794323     -0.38798005798586
  C   5.84606614618027      2.42983932984096     -0.27037845084828
  C   5.20312664809502      1.25842327164987     -0.08033090927104
  C   5.91269537606414     -0.00528717122404     -0.02306736890380
  C   7.18822273196530     -0.35415176432740      0.18913024394543
  C   7.22555513467107     -1.83852956676240      0.10757836469561
  N   8.19162732134128     -2.63911262923680      0.23794891041115
  N   5.90179602847164     -2.32850397340891     -0.15754733298004
  C   5.18119489450279     -1.27836636942024     -0.22078003338866
  C   3.70649283663748     -1.26825094310543     -0.46259361700579
  O   3.09425220126789     -2.25283529250954     -0.76506692298512
  H   1.53488538677776      1.88221130674577      1.13081716307419
  H   3.27085325324295      4.67455363484111     -0.19196869631005
  H   5.71584258705499      4.58124099314429     -0.61794631404066
  H   6.92402881629840      2.41997880770868     -0.37535017878981
  H   8.04484193841625      0.26709976874550      0.40123738348712
  H   9.05557603138525     -2.12854653394129      0.42468638876068
