30
Coordinates from ORCA-job 8072optt
  Br  1.37642781482660     -0.07862522199067     -1.22639997030142
  C   3.19358384273673     -0.17556517516175     -0.64150461270736
  C   3.69415038288087     -1.32164295262674     -0.03872097093258
  C   2.86440556983636     -2.56333829974911      0.20809047362726
  N   3.20981566548469     -3.72010010750688     -0.60420116257151
  C   4.37961195837491     -4.46669153882117     -0.17988272559450
  C   5.70717312910030     -3.71106663724540     -0.09529783173127
  C   5.69111910434458     -2.53872152965751      0.89976990403420
  C   5.05338398687021     -1.30138588669564      0.32203327345160
  C   5.79228416291811     -0.14500787660904      0.09991133579011
  N   7.12057926637319      0.02184815959402      0.48821406066142
  C   7.88207087409566      1.09753601889722      0.10651900565927
  N   9.03805952410460      1.26705921751429      0.59835323566494
  C   7.21653672312383      1.94250395895488     -0.95459315844690
  O   5.82463347242886      2.08949189521184     -0.73585841419986
  C   5.14865613366894      0.93518868051150     -0.52099768014154
  N   3.89453571940468      0.91459334705379     -0.88596170471329
  H   1.81598427949668     -2.32793993093174      0.04659830836186
  H   2.96024914022124     -2.85913073701362      1.25666053336167
  H   3.26422218129106     -3.46328438605293     -1.58256358021752
  H   4.49396132488873     -5.31564029606570     -0.85620302229087
  H   4.15682822958073     -4.88274700048423      0.80846321934759
  H   5.99239465877851     -3.33979577041793     -1.08349978771910
  H   6.47791338270196     -4.42156651353448      0.21301972304217
  H   6.71438513927229     -2.33425027977793      1.20791967947523
  H   5.15572727047052     -2.84024351293598      1.80499126469903
  H   7.53022179092077     -0.57516858492624      1.18854522313206
  H   9.48418593637878      2.09530406814366      0.21582663580431
  H   7.38957125307068      1.48521817065914     -1.93562737755946
  H   7.63732808235486      2.94416872166439     -0.94960387698554
