25
Coordinates from ORCA-job 8074optt
  Br  0.92376157402019      0.15015826694565      0.03589266052731
  C   2.81991802567805      0.12495087472297      0.07786968283581
  C   3.60398757462906      1.20968549618612      0.25725911295984
  C   3.05563432838141      2.55590684323266      0.62600354473282
  N   2.06051111143761      2.78287514590802      1.38914015173036
  C   3.79536358283956      3.69824102249887      0.09522746710020
  C   5.07355823108428      3.56119586459388     -0.28690971204971
  C   5.73620434444632      2.28214630073659     -0.25029119049297
  C   5.05571360992301      1.13586396230406     -0.00143022262747
  C   5.72645063801480     -0.16168275719477     -0.00853185869439
  C   7.23161277780445     -0.18266850880078      0.02227635448074
  C   7.84588197760155      0.54274415937558      1.21055610880318
  O   8.83359150517150      1.21997983546112      1.10973306492442
  C   7.19045154344341      0.32947935860576      2.49711261404774
  C   6.62885288086473      0.14442887184658      3.53873088857169
  C   5.06133775457649     -1.32052799440637     -0.06932224088521
  S   3.34790181552708     -1.49798421411403     -0.20056262381471
  H   1.66812948853637      1.92950888306917      1.77861969861623
  H   3.29525417212839      4.65622043158615      0.13612887348580
  H   5.64364031264354      4.42641909071804     -0.60060063962126
  H   6.79592146144496      2.25602775092077     -0.46161199456180
  H   7.65886127833868      0.26452091347384     -0.87723506304831
  H   7.57969086278005     -1.21721283535946      0.07501907373460
  H   6.14524147221072     -0.00402513269901      4.47577447478471
  H   5.58152767647359     -2.27025162961144     -0.07484822553962
