20
Coordinates from ORCA-job 8077optt
  Br  1.18098196213089     -0.35403198231169     -0.07120072611354
  C   3.03307332976575     -0.12088606618026     -0.05808564400464
  C   3.65612992094828      1.09896818364952     -0.05437487711927
  C   5.10539183558682      1.14619885336300     -0.04604452429068
  N   5.56140928927138      2.38764201236102     -0.04617786627748
  C   4.45415457605934      3.17866085795522     -0.05409197171519
  C   4.54447683657562      4.59770613628447     -0.05824198272186
  C   4.57931017108086      5.79499559741644     -0.06229529228870
  C   3.25575316301864      2.45709549097143     -0.05867200792628
  C   1.94398883647388      2.98853781478990     -0.06437543097449
  N   0.87625732932165      3.41294748775702     -0.06840575164831
  C   5.83878604786178     -0.05778706134618     -0.03955861334313
  Br  7.70377642625820     -0.01440240604688     -0.02416064269308
  C   5.15756605599428     -1.24986874763909     -0.04416245517072
  N   3.77843721115912     -1.23730203773185     -0.05322339194087
  C   5.75760049232571     -2.53729473870503     -0.04207202169298
  C   6.22701126542844     -3.63930574596848     -0.04123095543253
  H   4.61304144563429      6.85846976922568     -0.06638132162297
  H   3.30866790337238     -2.13291412310630     -0.05641775156335
  H   6.66118590173265     -4.61142929473794     -0.04082677145994
