24
Coordinates from ORCA-job 8079optt
  Br  1.35021312135580      0.56024105208790     -0.07852122239260
  C   3.15800728741953      0.08109517008337     -0.02020133263902
  C   3.67055245742331     -1.16706520328830      0.08101296870635
  C   2.92290884830922     -2.45188905693137      0.21914791580071
  N   1.68195058989048     -2.64856007100847      0.44295779186413
  C   3.75232307904831     -3.65888941071354      0.11183762083654
  C   5.09604339742820     -3.63958175635687      0.03794694967364
  C   5.80963316287500     -2.38582739406479      0.01448682418782
  C   5.12624378108575     -1.22456537645514      0.02197536819437
  C   5.81058728395424      0.04687787994803     -0.05330985983947
  N   5.26479329048235      1.19317554380545     -0.11662936460712
  O   3.86978977399699      1.20912731710361     -0.12150344310974
  C   5.90114899020485     -4.89533568658869      0.10010773970441
  N   6.91952719871450     -5.04907788310691      0.83904604860002
  N   5.47714225894879     -5.98654527649039     -0.64958091639990
  C   4.73489925662645     -5.98660918459190     -1.80848913200559
  O   4.52446411773453     -6.98380927660759     -2.44368467628306
  H   1.14604523989573     -1.79559970904251      0.54950387971813
  H   3.19942174238484     -4.58903052554600      0.15691500507010
  H   6.89060854768952     -2.38525552473481     -0.04712859319782
  H   6.89494305999927      0.07697222500218     -0.06227117081542
  H   7.10208919913315     -4.21817803852667      1.39561381352345
  H   5.94081749366030     -6.85962476212418     -0.42656266481249
  H   4.35784682173883     -4.99804505185236     -2.09866954977742
