19
Coordinates from ORCA-job 8080optt
  Br  1.14518911365316     -0.07271891589176     -0.56174341329666
  C   2.97333212923732      0.05250340292035     -0.17728666819062
  C   3.61878227720393      1.25523789384944     -0.07018983373471
  C   5.06877841831098      1.34843693533490     -0.02034471271890
  N   5.39314521305576      2.69902672866143     -0.08568898203488
  C   4.25500556703761      3.43700780508818     -0.12890297169142
  C   4.31879628941641      4.85593407067829     -0.15271014822091
  C   4.39950131222404      6.05098031308884     -0.17436300657208
  C   3.13915333855251      2.62706151253434     -0.09651888961296
  C   1.82389936935898      3.23861144435395      0.13146323841491
  O   0.88654475119865      2.71712160162114      0.67287457021105
  C   5.93560636675417      0.32113505830431      0.04209895111683
  S   5.41010989035660     -1.29934041769580      0.08892718508179
  C   3.62422330619074     -1.24963150823787     -0.08075850219161
  O   3.07674537038127     -2.32182168958039     -0.10679062375397
  H   6.32059193176209      3.08435421283590     -0.03993800722706
  H   4.45630518722495      7.11436721034305     -0.19337359815655
  H   1.77755658171227      4.29689306733217     -0.18593890920574
  H   7.00773358636850      0.46784127445951      0.05718432178348
