22
Coordinates from ORCA-job 8082optt
  Br  1.27474641846359      0.07040421945774     -0.03864457125019
  C   3.13493698808165     -0.12920474363993     -0.05720919818559
  C   3.77880780989482     -1.32093691091699     -0.06006030894630
  C   3.44681059590659     -2.70233005466287     -0.05283504958080
  N   4.53468621136776     -3.43659306407360     -0.05800040690491
  C   5.63910251083480     -2.60363738616718     -0.06855565628407
  C   6.96609162964672     -3.10385302622409     -0.07380890737673
  C   8.09343147373580     -3.51353080251823     -0.07742874836998
  C   5.24092137664190     -1.28324996314760     -0.07081416879975
  N   5.94472888565100     -0.12282852149244     -0.07906157911461
  C   5.25338963341377      0.96023505481005     -0.07733603321900
  N   3.86757475044980      1.00326659854729     -0.06681940740636
  C   5.86257308173180      2.28665550973683     -0.08561022067894
  N   5.21573251166494      3.40660213669116     -0.08433982585193
  C   6.20418089623181      4.37076533382183     -0.09388396295991
  C   7.40567001273550      3.75428414509700     -0.10015075726797
  O   7.19093295781124      2.41418923005915     -0.09489262598048
  H   2.45846641081800     -3.13765413210939     -0.04431560562659
  H   9.09169341073263     -3.87916893187779     -0.08037392430180
  H   3.43231111600967      1.91914567307037     -0.06593191641062
  H   5.98074773616148      5.42312283562247     -0.09544058762285
  H   8.42846358201468      4.08331679991620     -0.10748653786059
