24
Coordinates from ORCA-job 8087optt
  Br  1.12576483409208     -0.60555216660936      0.51162307617154
  C   2.98815270981543     -0.44545605029517      0.26297579297880
  C   3.71646760903431     -1.44679740629731     -0.22557722543861
  C   5.17002198998548     -1.29654003932631     -0.38455179631010
  N   5.78177064081914     -2.31737180190965     -0.84120601068646
  C   4.80451400919298     -3.37033367581770     -1.06701314354654
  C   4.63387562059058     -4.31444618119988      0.10907060237910
  C   3.40655670706118     -3.89671313126468      0.40654815785757
  C   3.37708110141380     -2.83510127166172     -0.68399853633330
  O   2.37683651312150     -2.85159525306684     -1.67196554914797
  C   1.26204346837173     -3.66201256319786     -1.39207464408224
  C   0.26711535164858     -3.45720894151399     -2.44894393298060
  N   -0.53429717425666     -3.32338319961058     -3.25506428661924
  C   5.84445466226730     -0.00322116170103      0.00037171923247
  O   7.02900845009522      0.17422642432028     -0.11682582858984
  C   4.92760841015011      1.03237294470998      0.52599668076348
  C   3.60940952646014      0.82497108090789      0.64021574875304
  H   4.90711815387780     -3.81693036772578     -2.05501940299471
  H   5.32473944175367     -5.00751777498669      0.56807407608676
  H   2.69921988658928     -4.14417811906820      1.18736092206080
  H   0.80016399766589     -3.39405417327494     -0.43707231917579
  H   1.52857914486396     -4.72322359162844     -1.36662630932675
  H   5.37982038413039      1.97411067973613      0.80743418810170
  H   2.95997456125603      1.60195574048188      1.02326802084689
