23
Coordinates from ORCA-job 8093optt
  Br  1.15636819554804      0.12852419199685      0.37829421622873
  C   3.03257690372130      0.00393612972308      0.23769791989912
  C   3.61274166312972     -1.20678276817862      0.06679219475562
  C   3.01513155338349     -2.58357226154739     -0.08856464987765
  N   3.98255953877218     -3.57730059190144      0.39257395897754
  C   5.32038181040398     -3.60024703825945     -0.22294581541000
  C   5.39331871206886     -4.16525985078932     -1.58141025404864
  C   5.48326475241223     -4.66462417782598     -2.66474921996185
  C   5.85095767882498     -2.20080036558835     -0.16774391647507
  N   7.07064726027225     -1.72139372664840     -0.19620101851712
  N   7.01409091151975     -0.37452128205990     -0.07669048719618
  C   5.74189801940248     -0.04593435050526      0.02986304764302
  C   5.01917316166207      1.16805105216731      0.19860928145422
  N   3.72547283502594      1.17366113908048      0.30039033455971
  N   4.97504655208578     -1.18320884001082     -0.02736668635945
  C   2.54557049829494     -2.75925979632973     -1.47582072591993
  C   2.14714650057639     -2.89340465798226     -2.59584532958200
  H   2.14577923832900     -2.64445571801648      0.56928087962486
  H   3.56983633229983     -4.50005759306830      0.34246012831335
  H   5.94992678751416     -4.21676532908721      0.42245410208541
  H   5.56260916994754     -5.09853222181205     -3.63311969215449
  H   5.54975378938288      2.11122735987265      0.24655142973502
  H   1.80174813542208     -3.02027930322933     -3.59450969777424
