27
Coordinates from ORCA-job 8096optt
  Br  1.04880553883607     -0.29045942808375      0.09137666612173
  C   2.92393929729646     -0.23553878510948      0.09276304313054
  C   3.69933905688377     -1.28480071952755      0.40043674691184
  C   3.35368934121156     -2.69085261740167      0.77694515929779
  N   4.59498667116632     -3.39811207399025      0.45651667435340
  C   4.74999361734910     -4.67168027207071      1.13206505899510
  C   3.64548149203118     -5.58300427202730      0.83498085505950
  C   2.73014008166735     -6.32020683040938      0.61042761902192
  C   5.70770350663371     -2.48509487647263      0.70173192844291
  C   5.12159581094410     -1.14010807884297      0.36497206554425
  C   5.70565628995721      0.04308226487023      0.05056994406834
  N   7.05972191034196      0.33515687037002     -0.02408719439053
  C   8.08644821369102     -0.30342261124896      0.61372144965064
  O   9.23838493517784      0.02930949011159      0.51929657293247
  C   4.86258284175691      1.18622444288907     -0.31305837773833
  O   5.30891758287860      2.26545609393707     -0.66137193386285
  N   3.50165132047253      0.95563177490213     -0.25220623971327
  H   2.51526387577802     -3.10228127984597      0.21592123813061
  H   3.10857404326012     -2.75428493599394      1.85115831562317
  H   4.81270400340343     -4.54218200067625      2.22638248838891
  H   5.68858901532102     -5.12534158314766      0.80537798779872
  H   1.92187690617393     -6.97981528590617      0.40135799909714
  H   6.57200585892260     -2.74717068182366      0.08653428939327
  H   6.02529555885797     -2.50253560326130      1.76016974507491
  H   7.27914670678389      1.21757790464215     -0.47672893090359
  H   7.76344880726157     -1.14848472250176      1.23780704969445
  H   2.92105771594170      1.74493781661913     -0.50106022012304
