28
Coordinates from ORCA-job 8097optt
  Br  1.29509491023289      0.36297279869003     -0.43661971306752
  C   3.15832836148179      0.23653125763385     -0.18326321426897
  C   3.74971518301768     -1.00194599877166     -0.18760297547377
  C   3.34591293108787     -2.34951807947824     -0.34922484474388
  N   4.38534579383220     -3.15820332335187     -0.23987698586112
  C   5.51434560690690     -2.42236814662632     -0.00294763001387
  C   6.83745395958657     -3.11001967344116      0.15886682959746
  C   7.93194317925399     -2.20305834227723      0.50505358622387
  C   8.83478355347721     -1.46584044599854      0.78845884079255
  C   5.18360428307103     -1.08973080762235      0.03765533006359
  N   5.88043293634382      0.06699331648592      0.24607563435596
  C   5.27482714794120      1.25763370994931      0.23846794969209
  C   3.91685034600346      1.40640143831818      0.02461414899487
  C   3.32170451447822      2.79115919254620      0.01041473339305
  N   2.91942401470692      3.22158495569824     -1.31043664003467
  C   1.65849302819793      3.64649608509142     -1.63008899340558
  N   1.21140947153665      4.03508391659811     -2.75058424878260
  H   2.34792491492400     -2.71377853380696     -0.53748235564438
  H   7.09867503676427     -3.63770657160064     -0.76271632572000
  H   6.75501437551006     -3.87342507785278      0.93690701204237
  H   9.65927303847630     -0.84339867909647      1.04442648235186
  H   6.87640443241258     -0.00558376275495      0.41995675128304
  H   5.90935863553494      2.11500990846071      0.41869077169147
  H   4.04840617268386      3.48655278194121      0.44110618026085
  H   2.43477019576141      2.82493298554527      0.64522113718301
  H   3.59824126519471      3.15667147202925     -2.05314709376015
  H   0.98389177511218      3.63407496377617     -0.77307095292685
  H   1.92437093646928      4.00847865991530     -3.47985341422268
