24
Coordinates from ORCA-job 8098optt
  Br  1.23312726303613      0.22811040957401      0.10445744356026
  C   3.12269720144641      0.12024337473513      0.02580272581387
  C   3.73639906925647     -1.13374668601045     -0.03604278319401
  C   2.97326477237762     -2.43814558351544     -0.06319398721967
  N   3.79368900683869     -3.61327196417212     -0.27764525781406
  C   5.04936820235657     -3.54974956935758      0.44223001360927
  C   5.93204517749348     -2.38343790495442     -0.04355092593042
  C   6.42473289130435     -2.64261790096307     -1.39673240716468
  C   6.78477328310371     -2.88745734518685     -2.51216423477075
  C   5.12829033299190     -1.09828321948141     -0.03188523772265
  N   5.80715440327570      0.04779060540855     -0.00090365314429
  C   5.09751028164054      1.15754323247328      0.02196515307627
  N   3.77319625633392      1.25726446784793      0.04094730500701
  C   5.87175063080703      2.45018617310291      0.03799984163498
  O   5.37348412839935      3.53290753139192      0.02399626259430
  C   7.34569961293613      2.30077900790243      0.07498078943129
  N   8.48939631872610      2.25686422042471      0.10804913254040
  H   2.20242831216091     -2.38785257303040     -0.83298036651303
  H   2.44073730199073     -2.53467952951226      0.89002247374021
  H   3.97092539282919     -3.75499976847093     -1.26586853792720
  H   5.58653822631948     -4.48961089613643      0.32771134353014
  H   4.83144778448501     -3.41113339048710      1.50440086219631
  H   6.78639693639828     -2.23709689285644      0.62204934039573
  H   7.12794721349223     -3.09160579872596     -3.49864529572925
