24
Coordinates from ORCA-job 8099optt
  Br  1.16031853161440      0.03079858576896     -0.14520184258576
  C   3.02630382638036     -0.14348353356014     -0.04131698654835
  C   3.64347153774652     -1.33350931255442     -0.23409474762972
  C   3.22296653137192     -2.68971850267708     -0.39669318842384
  N   4.25012604559930     -3.49156906948108     -0.34263577215153
  C   5.41261519478320     -2.74451796135775     -0.17281343769645
  C   6.70844765160549     -3.46581263302277      0.04633292848233
  C   7.40425976487587     -2.99638028335870      1.24538744083442
  C   7.95923825533823     -2.58643503139299      2.22500580914452
  C   5.09546085581178     -1.41753743803069     -0.12223218293663
  N   5.83216981855096     -0.24520939553851      0.03719432243847
  C   7.20599124780040     -0.18855914160588     -0.31269131215870
  O   7.74718226743561     -1.03604156376613     -0.95005135708667
  C   5.15995286181719      0.93203126112141      0.30243479219047
  C   3.79494223822425      1.00550635985419      0.27364611846333
  C   5.91015646636934      2.11520818172337      0.58756020894922
  C   6.47945724325027      3.13736076134633      0.84427400627370
  H   2.20762304566534     -3.04351880785321     -0.49662979006928
  H   7.37505796760662     -3.35431672890478     -0.81103037172899
  H   6.47101195742777     -4.52463066764187      0.15572676266122
  H   8.45878113155114     -2.24307679701649      3.09881411894117
  H   7.68632044941618      0.72948673384925      0.03783065010612
  H   3.32058661334378      1.95250398083216      0.47693565314428
  H   6.99155849641402      4.04242100326680      1.07324817738664
