30
Coordinates from ORCA-job 8101optt
  Br  1.08528198529391      0.28810896972634      0.16789096077494
  C   2.97443192157732      0.10297143699929      0.07224965537337
  C   3.54800933238200     -1.16713682044158      0.02546979685120
  C   2.68788827640333     -2.41603580887514      0.04365725851721
  N   3.39106052366379     -3.65899151156727     -0.19639470177548
  C   4.68210340008278     -3.70479298504584      0.46687085816253
  C   5.63594709527478     -2.60999989492088     -0.01261926248457
  C   6.17872664914765     -2.89828842580760     -1.42922587949951
  C   6.98150795457858     -4.11650140588950     -1.48040530296347
  C   7.63674705272824     -5.11950623821481     -1.49716334941225
  C   4.94175033396230     -1.26710231418605      0.00812164690691
  C   5.70121663072126     -0.09673452714871      0.00886261966597
  O   7.07231687892659     -0.24028250817668     -0.03585096305808
  C   7.83383028565478      0.55356607401461      0.77256944024738
  N   9.07486202965869      0.66023819820851      0.67744835794433
  C   5.11728723075279      1.15772289920319      0.01729915162514
  C   3.73532642199259      1.25699833268466      0.05737167076470
  H   1.88876314002705     -2.31264949080661     -0.69088061195519
  H   2.19246283595497     -2.46821168815671      1.02032004261221
  H   3.48790406584324     -3.83595091385444     -1.18804331891353
  H   5.13483895620000     -4.68489611672953      0.31359858582738
  H   4.50831716941853     -3.58661486863940      1.53987094789375
  H   6.49692816508500     -2.56449059144640      0.65791862952649
  H   6.78554926837806     -2.05457008465182     -1.76133719141806
  H   5.34528435850756     -2.97939575958001     -2.13266997481613
  H   8.22555229446622     -6.00533587345611     -1.51879573322275
  H   7.26793844855266      1.07629573209376      1.54186971054692
  H   9.43974657358680      0.10757624683235     -0.09901055594509
  H   5.73125693787845      2.04815404509947     -0.01980768510458
  H   3.25416378330002      2.22485589273295      0.07081519732826
