27
Coordinates from ORCA-job 8102optt
  Br  1.47150036676570      1.83441186469647      1.15943347555507
  C   2.57452408724266      0.54399583493259      0.31871157757136
  C   2.67164955269521     -0.74737845987702      0.72944774831267
  C   2.29495129788100     -1.00990490156867      2.15280762704047
  N   2.04139293269592     -2.09976948704272      2.74883646454077
  C   1.94483248471535     -3.20019994013007      1.89596266245544
  C   0.96450834059986     -3.33319959310594      1.00983324951897
  C   1.21388006810029     -4.17468182446999     -0.15513297172984
  C   2.31394930379050     -3.92990993547867     -0.87690344179337
  C   3.32063600190026     -2.86646398897191     -0.75178412331289
  C   3.46702670146142     -1.63883476745284     -0.19540588690094
  C   4.63821927485023     -0.87329279235325     -0.70388805639925
  O   5.80380856122169     -1.51914140067445     -1.05258091936323
  C   6.52454401142356     -2.12638587442832     -0.06009843651178
  N   6.33418558645648     -2.12727616566603      1.17526779934694
  C   4.50935321855749      0.41636376895071     -1.01472426728508
  N   3.31782162199188      1.05826702256540     -0.70191023883060
  H   2.31807252848542     -0.11927972909405      2.77621196864148
  H   2.77349204019500     -3.90115957768799      1.92848097216675
  H   0.10393959555475     -2.67186653417379      1.04073578998805
  H   0.52980415707984     -4.95659683724599     -0.46595030834577
  H   2.51123413860126     -4.57904739697140     -1.72452830482738
  H   4.16421057398886     -3.09486383747592     -1.39722943138100
  H   7.36115687018269     -2.64995786470025     -0.51220080347130
  H   5.51117831024706     -1.59651678584816      1.46116945932952
  H   5.28165053126518      0.99071447014343     -1.50350808892073
  H   3.16147784205039      2.00697473312887     -0.99405351539431
