26
Coordinates from ORCA-job 8106optt
  Br  1.10851002889047      0.10402879625433     -0.37156521020881
  C   2.97445452451639     -0.03349753690377     -0.22556830929966
  C   3.62177923457297     -1.21222086788986     -0.18777581016416
  C   2.88887073798886     -2.53996236215032     -0.22420501454730
  N   3.74998354842442     -3.68949100450687     -0.42031806929327
  C   4.94766153368717     -3.61679437459161      0.37452158349364
  C   5.86457675253093     -2.42984695258418     -0.01614746709637
  C   7.08825001776764     -2.36815482555419      0.92748632319819
  C   6.71190439190260     -2.03527267856568      2.29670304276626
  C   6.38408228388356     -1.75111276134416      3.41207235415301
  C   6.35166282405855     -2.68386457127757     -1.38042301912948
  N   6.71651705249958     -2.91967718694798     -2.44131272737305
  C   5.05679593000379     -1.12938516100422     -0.04497085109186
  C   5.67097650704482      0.06731719695231      0.04693596402417
  C   4.93442823215247      1.31119715402141      0.00051632419835
  O   5.36573263315221      2.41947057999864      0.07392179118521
  O   3.55249628083642      1.16068653997884     -0.15375186031739
  H   2.13449834907903     -2.52586658406435     -1.00936438104128
  H   2.35274272325702     -2.66679416915121      0.72226867124360
  H   3.97231801765670     -3.82535814441150     -1.40007967625342
  H   5.51544985014635     -4.54336123756564      0.28255081040541
  H   4.67327004551939     -3.48969389848801      1.42514047081344
  H   7.81787058597287     -1.64718821125271      0.55731045225498
  H   7.57840943035808     -3.34425200466583      0.90223441202834
  H   6.10862657615392     -1.49605555613510      4.40787852763554
  H   6.73913190794371      0.17514982184930      0.15994166841592
