28
Coordinates from ORCA-job 8110optt
  Br  4.53832765249543     -2.77434658012584      6.49492154496925
  C   4.78870210643691     -1.90521043921733      4.85530022404039
  C   3.91287968596532     -1.94119110465533      3.85068651287541
  C   2.60167281988338     -2.67998198321325      3.78462060387370
  N   2.75517324196647     -3.89498531014648      3.00340100379805
  C   1.92833404086305     -4.13239507407375      1.83014480311549
  C   2.73539804718104     -4.24548614744432      0.51822933460650
  C   3.48622491813552     -2.97777302066045      0.28974618523764
  C   4.79419491713205     -2.83335397040554      0.44612889680513
  C   5.43467320886179     -1.48868965495081      0.66955910393546
  C   5.44325266677030     -1.28486147891117      2.16214181250756
  O   4.17942270301634     -1.35187153455108      2.65354720270336
  C   6.50667121156473     -1.16670215304763      2.95239046720394
  S   6.30300911912458     -1.00296140088560      4.67661515302046
  O   7.35805184211043     -1.70985023112372      5.34127473906861
  O   6.05524111366746      0.36815552735520      5.01411242778238
  H   1.88506146481898     -2.01552412985764      3.29557542542939
  H   2.24122249974600     -2.87479269877582      4.79444979912687
  H   2.86190241242877     -4.70833673980098      3.58666050716533
  H   1.20613233988110     -3.31731020519630      1.72515055481943
  H   1.34624187999677     -5.04885670607077      1.95605697304875
  H   2.03234745195535     -4.45356479621500     -0.29333719627212
  H   3.42609483092576     -5.08769856342539      0.59261059138138
  H   2.87872903307938     -2.08515352699339      0.14559756422919
  H   5.41674868394120     -3.70369090660652      0.63277809613077
  H   4.83284745900904     -0.69853236794880      0.21441587811549
  H   6.45163994767092     -1.41925969566845      0.28737784138052
  H   7.52280270137189     -1.17777510738383      2.58784394990163
