25
Coordinates from ORCA-job 8115optt
  Br  1.56609714048487      0.28069508543513      1.43270280487523
  C   3.17583232716677      0.01717021214538      0.51574488792114
  C   3.65477615110238     -1.15827862360724      0.06076954578636
  C   2.98455407118820     -2.46276113635047      0.11141803674491
  N   1.72352068114015     -2.55424152175136      0.11503157644859
  C   1.01214898893943     -3.81415645498388      0.11310764028433
  C   -0.37476291476767     -3.58504737838633     -0.49017244101421
  C   -1.18151144149293     -4.80046116223293     -0.46622991597077
  C   -1.81634382822542     -5.81527364737782     -0.42929699439828
  C   3.96682283648010     -3.59995210891786      0.11237399681315
  N   3.86400760879236     -4.69312066014897      0.72566864890069
  O   5.07356201442359     -3.44021955034775     -0.66143695113316
  N   5.62634713208476     -2.19270589326495     -0.94379905306349
  C   4.98140863131217     -1.15434431773701     -0.56384249703147
  N   5.62156732888023      0.06423269965704     -0.81095077433594
  C   5.08540530413889      1.12125294488705     -0.35975363188801
  N   3.90115459033866      1.16432779740598      0.34000482937139
  H   0.88692021205298     -4.15759257865717      1.14559450993812
  H   1.53706777923218     -4.60183752905734     -0.43606697090334
  H   -0.26556562152867     -3.23187376346952     -1.51749698430983
  H   -0.87586099578123     -2.79182930587797      0.06754536802900
  H   -2.38782363984716     -6.71214207960243     -0.40258005702452
  H   2.98817652330586     -4.75059729480637      1.23457440648277
  H   5.55868903169854      2.08551443881687     -0.51257010144689
  H   3.54181008888093      2.03724182822996      0.69066012092423
