27
Coordinates from ORCA-job 8119optt
  Br  1.01438960433905     -0.40524369087809      0.71023676882297
  C   2.83032101326759     -0.29793483354022      0.17373123209788
  C   3.64470840726963     -1.37083608968069      0.27072045317652
  C   3.17023254436129     -2.73931702701901      0.68096233096076
  N   3.44688005578719     -3.63830451489729     -0.43918463896611
  C   2.27628406252131     -4.35945483027066     -0.91293756105812
  C   1.72703944515752     -5.31133660276682      0.06813529264637
  C   1.30956622580192     -6.06897079898407      0.89697493351220
  C   4.58337116681587     -4.49355882755970     -0.20526260818138
  C   5.86176866639603     -3.77102017649069      0.15634892292180
  O   6.85590733862717     -4.41406015578507      0.40850863260906
  N   5.91867273916429     -2.39602762481048      0.23066063877440
  C   5.05515729277879     -1.32082537734404     -0.10087841386504
  C   5.62091916191198     -0.23360037646059     -0.64603940678620
  S   4.82958275442544      1.26124779785766     -0.94620610542949
  C   3.18754268106650      1.03684798526092     -0.33260180915669
  N   2.35086259416604      1.98843269498341     -0.36473388742250
  H   2.11090284880328     -2.73420502610791      0.91435738727778
  H   3.69585318396679     -3.06170230183902      1.58717407024088
  H   2.54423190166467     -4.89564181004816     -1.82540017290419
  H   1.50695626750536     -3.63239861059444     -1.17915840940764
  H   0.92880068027333     -6.74772162868143      1.62276425490698
  H   4.80638933054032     -5.06654257099615     -1.10774712605301
  H   4.41340356396449     -5.22199688591688      0.60221728504066
  H   6.86515220140388     -2.11418506916454      0.44908877493531
  H   6.66764248111197     -0.22936231718071     -0.92303528930877
  H   2.74246178690824      2.84571866891470     -0.74969554938441
