26
Coordinates from ORCA-job 8126optt
  Br  0.80434888774493      0.48994242959808      0.84078244762638
  C   2.62496126555518      0.45607580281433      0.27322075755854
  C   3.51023959581232      1.44854257516276      0.69346940887115
  C   3.14522836461816      2.65075247057739      1.51782823228088
  N   3.29204138879615      3.89581854727509      0.76727141524979
  C   2.09224908759742      4.43960610293610      0.14486294859720
  C   1.67590166340154      3.68073628874441     -1.04122484810929
  C   1.36798095189229      3.02389426019264     -1.99352888074967
  C   4.49346516722719      4.26989496793462      0.23313173159757
  N   5.63736029390030      3.71236241252959      0.21839257510425
  C   5.87807653734883      2.34786057683300      0.67209940984734
  C   6.13934850975084      2.29661835302383      2.12531926095649
  N   6.33459992430817      2.26386123136794      3.25389712224335
  C   4.83172665680862      1.32106687640277      0.26463050967618
  C   5.18070972252779      0.26338898596934     -0.56049938782505
  C   4.20175786798818     -0.64728173978552     -0.91962712350632
  N   2.94317133378781     -0.55450737185577     -0.50157641868855
  H   3.77654200635879      2.70455817495483      2.40565395098465
  H   2.11626518145811      2.59017334387456      1.85938241936539
  H   2.28659980200410      5.47741922883274     -0.13100507638237
  H   1.28550307870456      4.44461289401547      0.87923653413486
  H   1.09638322174983      2.44958225494029     -2.84759620835437
  H   4.43966228773607      5.24656632882084     -0.24844942252545
  H   6.81740073494992      2.04387037953938      0.20530639392964
  H   6.19596668571846      0.14591633970524     -0.91596826974267
  H   4.43150978225434     -1.48833171440399     -1.56300948213991
