32
Coordinates from ORCA-job 8128optt
  Br  1.35505776359511      1.36812389771686      2.92191489884645
  C   2.20303023682625      1.04283215430928      1.25199082289929
  C   3.16813320182448      1.89424714617943      0.82285448035037
  C   3.26262697143255      3.34420980328786      1.25869388099332
  N   2.09539038502734      4.13131008505578      0.90534400880445
  C   1.69915985352027      4.22240340378310     -0.49805784864859
  C   0.82654790205265      3.10510250166495     -1.10123239370274
  C   -0.61014896985017      3.04795734508813     -0.55830897949063
  C   -1.23896102260535      1.64662330493769     -0.58575849526456
  N   -0.53105350007627      0.80919386947610      0.38150790766950
  C   0.29982782258911     -0.19927730838628     -0.03482053042709
  O   -0.02911609958955     -1.03242777145912     -0.84199792531105
  C   1.76980866634982      0.00629259758109      0.34747505225313
  C   2.62071105070529     -0.39661915120057     -0.62180972837676
  C   3.90554583038922      0.25824809480927     -0.83353550966722
  N   4.88642209465491     -0.07992287614013     -1.57011383005756
  N   3.94158780864377      1.52141345925775     -0.23094511187368
  H   4.14245335032693      3.79547261681957      0.79227747168108
  H   3.40168974486116      3.40435218919948      2.33720194454106
  H   1.31714256519624      3.93114303541644      1.51977391807620
  H   2.61846238586274      4.30318314521397     -1.08483463348147
  H   1.17252788492252      5.17320086567737     -0.62283177483418
  H   1.32114123452392      2.14247135776508     -0.97272386460205
  H   0.78409957391543      3.27284437758222     -2.18068425098758
  H   -1.24476205028550      3.74144159753460     -1.11473531380964
  H   -0.63545468066823      3.39154020864011      0.48334309113661
  H   -2.30028344880225      1.70220301582106     -0.33990309828505
  H   -1.14939979950229      1.17762114839985     -1.56683416509576
  H   -0.18301229168101      1.35268355357896      1.15285360873501
  H   2.26836670428337     -1.09191032286044     -1.37229901477321
  H   4.72155374218322     -0.98725459395572     -1.99564332138795
  H   4.68590508937432      2.12929724920626     -0.54416129590968
