26
Coordinates from ORCA-job 8131optt
  Br  0.96816592669717     -0.10699364797986     -0.31284510427976
  C   2.85265203056021     -0.05997537097696     -0.15095803775445
  C   3.57631297489799     -1.24479113069068     -0.04543643100188
  C   2.93115729451101     -2.60884252089437     -0.08875764808857
  N   3.85251212167361     -3.70478810544305     -0.30375567460174
  C   5.02830651427083     -3.63007552027059      0.55649711191721
  C   5.87057467762039     -4.81021536303795      0.39603483073974
  C   6.55309921022068     -5.77781929410052      0.23422013673141
  C   5.81967335597782     -2.33127283209818      0.32525321000992
  O   7.01339124994558     -2.27517086947269      0.33500252161839
  C   4.95709606122353     -1.10658323544645      0.10768810709921
  N   5.59256522729325      0.06265634335715      0.10771067471809
  C   4.88549495469697      1.17403325867670     -0.03176806011561
  C   5.65344824173272      2.46665726673404     -0.02608195985988
  C   6.26542124067120      2.74302921502207      1.33350807666860
  O   6.25659072390689      3.82365547112819      1.84832344562127
  C   3.49413126441684      1.16082487583979     -0.14676496898908
  H   2.17526814631347     -2.63153859714782     -0.87337222630676
  H   2.39670503771742     -2.77545160753436      0.85408539058267
  H   4.13895763916601     -3.76584073208983     -1.27456323740046
  H   4.66733799188432     -3.59044208277524      1.59356205566900
  H   7.16315177945402     -6.63814413934034      0.09514032412362
  H   5.04201906211196      3.31938460721390     -0.31450353771486
  H   6.48742609281475      2.36803074480694     -0.72732979061340
  H   6.73719751770248      1.86979759319895      1.82046830578919
  H   2.93634366251875      2.08287567332115     -0.23435751456188
