28
Coordinates from ORCA-job 8133optt
  Br  4.63833434510541     -0.00940717012325     -2.56978063939280
  C   3.72687954652231     -0.03291893078015     -0.93215346582032
  C   2.99096306260924      0.98397788465015     -0.46918534056142
  C   2.65054146444683      2.27223702486205     -1.17294036412687
  N   1.20125515679752      2.40576223830153     -1.25337678346860
  C   0.59171364303245      3.62236836887895     -0.72962157657287
  C   -0.66801578208644      3.34527324137992      0.12361704870734
  C   -0.38620970011511      2.93510329548487      1.58115068382194
  C   0.36839519504324      1.63838883178592      1.76205934365525
  O   1.71929703575319      1.84234117286805      1.32576499756913
  C   2.36183891557397      0.77671844614444      0.82585435127286
  N   2.37089236132914     -0.30932773883713      1.49431277754474
  O   3.07591640639371     -1.36228941092748      0.96378056360711
  C   3.82767510712516     -1.29401115525298     -0.17437286752869
  O   4.47121768483739     -2.24685012916075     -0.49104432642230
  C   -1.51474616444640      4.54053382229893      0.13479282193266
  C   -2.18058061350681      5.53640863981075      0.16222078481833
  H   3.12345710962069      2.28182551196682     -2.15439251934822
  H   3.07108422007021      3.10176501476811     -0.60105736219891
  H   0.87478380615853      2.20282622643022     -2.18607957031179
  H   0.30901686815157      4.30109473841403     -1.53872673792231
  H   1.31607300069596      4.15065448079128     -0.10766211150721
  H   -1.22240832219459      2.53873496086771     -0.36744969379850
  H   -1.34243119921218      2.83734434100449      2.09926168572449
  H   0.15962777294853      3.74130768558002      2.07812565064709
  H   -0.07062217912907      0.83283263942117      1.16891942100532
  H   0.37589494378119      1.33339024628400      2.80896507610252
  H   -2.77884368530563      6.41591572308828      0.18401815257205
