29
Coordinates from ORCA-job 8136optt
  Br  2.44949506868709     -1.17246800124549     -2.45172828010999
  C   2.79547756275654     -0.14159997204527     -0.91405919376101
  C   2.99213473916173      1.23723628556448     -0.99182827381954
  C   2.70295590912116      2.06197626634219     -2.22355329631126
  N   1.30244842165876      2.45234094409145     -2.26984799333682
  C   0.80878845504938      3.40724453469846     -1.28495763164873
  C   0.51343548715381      2.92937986323463      0.16742042703344
  C   1.28699746864286      3.73342295585336      1.24223096903423
  C   1.63514903919696      2.90840549668430      2.46740624980047
  O   0.88722723586419      2.79976838658307      3.40103649356219
  C   3.00616558943435      2.20644930612964      2.48533736042176
  C   3.11976207326275      1.31806769579938      1.28279558542562
  N   3.24415441408507      1.93455134287809      0.10838852908661
  N   2.93587019788594      0.01720613773214      1.45202540907834
  C   2.82487703210726     -0.73093009476380      0.34997331000130
  C   2.67667345420566     -2.14470670573287      0.52830320308239
  C   2.54891083050027     -3.32564430296829      0.67607333360405
  H   2.94511945882749      1.52066147056532     -3.13553935187692
  H   3.31070856985853      2.96560982161892     -2.17658893987656
  H   0.69096467024928      1.65298551320722     -2.38252020802702
  H   -0.10628269646182      3.83131253713199     -1.70206505351779
  H   1.53707087724495      4.22057992333089     -1.25232371798216
  H   0.72452749406821      1.86181578178737      0.24887155945713
  H   -0.55304258762946      3.02566379718846      0.37170976172499
  H   2.20756086251426      4.11928021832891      0.80657722599220
  H   0.67996532958145      4.57126146089278      1.58518324099700
  H   3.08738717081102      1.63374747005870      3.40397689935568
  H   3.77326742610730      2.98231343770388      2.43734968233035
  H   2.43123044605495     -4.37493157064997      0.81035270028007
