26
Coordinates from ORCA-job 8142optt
  Br  1.05398181897726      0.40228639975383     -0.45023131411039
  C   2.89838928825044      0.14527000846603     -0.20658866730273
  C   3.46907997596645     -1.07164797776473     -0.05385918283072
  C   2.77646042126749     -2.39599882757036     -0.00846245223020
  N   2.59519776115776     -2.81694560504626      1.38226521744348
  C   1.73060301596796     -3.99296525752493      1.50864289384579
  C   1.43216239265475     -4.26250221264173      2.91125910831574
  C   1.17345032629597     -4.46288748050438      4.06228697537561
  C   3.63452675302456     -3.46486576762897     -0.68680638983806
  O   3.16337503233495     -4.34895086349013     -1.33709133069477
  O   4.96203338120381     -3.39076792246687     -0.50425600724358
  C   5.52616007801148     -2.39506601784531      0.34829695838821
  C   4.88905342785957     -1.04786183633098      0.15098165095993
  N   5.63279348620156      0.00241631976305      0.19915063400003
  C   5.04122584455120      1.25332344127169      0.05551334126210
  N   5.62336295158587      2.37563495517341      0.10100588539769
  N   3.64715305492058      1.26074027043221     -0.17074623016164
  H   1.83465385489830     -2.36781937241289     -0.56793863795062
  H   2.20976124376115     -2.04729113011505      1.91916741424784
  H   2.23821183316088     -4.85413751624065      1.07022062307767
  H   0.78846352942550     -3.87101166616936      0.95645103197077
  H   0.94890504726569     -4.65372268404403      5.08439684884295
  H   6.58327889045747     -2.34543397788392      0.10532559950163
  H   5.39578325937435     -2.69760174210642      1.39024340905644
  H   6.61652292772245      2.23684600791029      0.26190710528412
  H   3.22841040370255      2.17296045501650     -0.28413448460730
