26
Coordinates from ORCA-job 8147optt
  Br  0.95793299373871      1.72644407943889      0.21865047983812
  C   2.56700377395800      0.73949363184574      0.23988800601041
  C   2.66326102816740     -0.55742210151792      0.61091474143486
  C   1.43207422047816     -1.34109808466542      1.03297086376192
  N   0.99504565663094     -2.32844483517274      0.06925109340429
  C   1.67847838614272     -3.61054845598022      0.09678483922467
  C   3.19109370869214     -3.58096112751436     -0.10965829714477
  C   3.92029552569287     -2.70926648341216      0.90656259739819
  N   3.84683048769160     -1.27089351201684      0.58985785969441
  C   5.00130233025494     -0.68085563702998      0.16797252012935
  N   6.19292242553550     -1.21776417728729      0.06670237905162
  N   6.99570510368235     -0.22990162454301     -0.38450702936342
  N   6.37160014932633      0.85785837721311     -0.56257128490020
  N   5.08101695511902      0.60880994443740     -0.21168616577848
  S   3.84648063806626      1.76537106359527     -0.36506567888152
  O   3.67168005850497      2.03005276911936     -1.74933235551830
  O   4.12719138179087      2.82706655961438      0.53345275051147
  H   1.63658863266691     -1.84600161878273      1.97905434951178
  H   0.62835390707262     -0.63730087349583      1.22186344267007
  H   0.92938662640475     -1.93789230151012     -0.86229633252905
  H   1.46885986943046     -4.06705327505935      1.06989426380412
  H   1.21404922077800     -4.25058407965802     -0.65375071200512
  H   3.57584663853607     -4.59940699009077     -0.01755206505285
  H   3.44070452116282     -3.23478581463889     -1.11619543667146
  H   4.97963482987651     -2.94792368631776      0.92119579021937
  H   3.53466093059876     -2.86899174657060      1.91459938118051
