31
Coordinates from ORCA-job 8150optt
  Br  1.17737944917215      0.52207423208500     -0.14694713658906
  C   3.02332205387065      0.15729777206091     -0.16325759880325
  C   3.52507181786976     -1.05624466456754     -0.46322976223120
  C   2.64420504467234     -2.22717117901615     -0.83449487358020
  N   2.27688756262700     -3.02589657725748      0.32439706794622
  C   3.23866913541892     -4.03057307042799      0.76240362632729
  C   4.44992486303153     -3.44314303885471      1.49769241528501
  C   5.71142477732501     -3.30908498292934      0.64673160051861
  N   5.57554072624639     -2.51336070999648     -0.58149443535830
  C   4.97128656630431     -1.24328268623672     -0.40541165310182
  C   5.74625322072205     -0.19074609253048     -0.10352852120093
  C   7.22817193021008     -0.20401730953457      0.00289628936267
  C   7.73329752189433     -0.28621219418365      1.42806510192137
  O   7.04685358231738     -0.52322963989079      2.37985033566260
  O   5.23071953284591      1.02908528256418      0.17465654599309
  C   3.87911907445978      1.29029601196789      0.19400894987380
  N   3.45373116727542      2.43823365489917      0.48958684172086
  H   3.13932899522824     -2.82529753553271     -1.61309491641725
  H   1.73080229408532     -1.83352538588276     -1.27360951613995
  H   1.37792427786276     -3.45630028993168      0.15982188388034
  H   3.58765230645230     -4.65517705193770     -0.07858534581502
  H   2.69880476483121     -4.69275984346405      1.43909102989918
  H   4.70236992042655     -4.07956889698278      2.34878402343261
  H   4.17072055978783     -2.47176423276612      1.91259526196080
  H   6.06081125848882     -4.29760366069756      0.34042198187466
  H   6.49816012793649     -2.85961317483371      1.25533369300254
  H   5.11100404005438     -3.04834245233436     -1.30155636614491
  H   7.64910858469464      0.69641537659257     -0.45342016726755
  H   7.62505255877670     -1.06980443197993     -0.53469070976510
  H   8.82226432738072     -0.12658181434805      1.54218548709067
  H   4.22513795773096      3.06689858594761      0.70179886666220
