26
Coordinates from ORCA-job 8156optt
  Br  1.56748513532013     -0.64939659834540      1.38597877587287
  C   3.06973213020828      0.29124366733451      0.71944083072186
  C   3.03882592082802      1.63540318569393      0.68333915920183
  C   1.90107753910412      2.49480170852469      1.04095095105067
  N   1.32251123947888      3.12984794607870      0.09499213581463
  C   1.12635751691812      4.45996727470740      0.48122162682063
  C   2.12431274517262      5.19218691933876     -0.06606570389832
  C   3.07958725707357      5.47070095157372      1.01386220683521
  N   4.08059474956298      4.70027306649368      1.19610062161070
  C   4.60199659327240      3.68130207969801      0.35999676702394
  C   5.93287845592864      4.13427159082290     -0.23803002861209
  C   7.10785519245221      3.53361723676883      0.39821707224199
  C   8.04993813624425      2.99963113842609      0.91088282089161
  C   4.23874793611527      2.37679082449150      0.22477035290144
  N   5.13290250208118      1.48132148331929     -0.41818188959236
  C   5.04181405682193      0.14457081273462     -0.31122589720891
  N   4.08708252152329     -0.50303650006398      0.26478730141690
  H   1.82542545111644      2.81531233038491      2.08707719713631
  H   0.63745030737070      4.70068668878096      1.42507388634220
  H   2.57268794918797      4.74710101044380     -0.94877402859617
  H   2.86774304465921      6.20269878302150      1.79049765033199
  H   5.99470922197618      5.21690397602829     -0.13770723775602
  H   5.95985423863415      3.92414523393937     -1.31304484343616
  H   8.89628207154297      2.54878063034482      1.37159601935891
  H   5.98532866444169      1.84269647249692     -0.81564003892396
  H   5.85481942296467     -0.40882191303792     -0.76911570754970
