25
Coordinates from ORCA-job 8157optt
  Br  1.50089377740041      0.97668119723388      2.02992396080364
  C   2.86415979688389      0.19591002842101      0.96409569260430
  C   2.81135367129504     -1.06759679505931      0.44233916390294
  C   1.48422945389297     -1.79476131200275      0.63488721072945
  N   1.15171341154115     -3.02476005647966      0.56427300187687
  C   2.28074053482033     -3.76069723702431      0.19383538531234
  C   2.88610171086182     -3.45524643418971     -0.96344999151584
  C   4.20008693904486     -2.92201533030601     -0.58457989955945
  N   5.30922461807028     -3.42540856260165     -0.31241246418150
  C   5.48031582258143     -4.83611431823845     -0.63556273754656
  C   5.16060632233725     -5.67311488674768      0.52342055175932
  C   4.87492137278417     -6.34474336562204      1.47324555513294
  N   3.96454275461569     -1.50760867917417     -0.25757118452534
  C   4.99573484674512     -0.62547301341546     -0.68286446041690
  O   5.79810962584139     -0.94979211545327     -1.52143015359918
  C   4.99754542774955      0.67564492405832     -0.03399053590169
  C   3.98896770525751      1.05641310914678      0.75964414260157
  H   0.70030550857426     -1.10883024740435      0.92774288240503
  H   2.77684133743397     -4.31874538335096      0.98436850151281
  H   2.31911222618630     -2.85599937093614     -1.66768361405108
  H   6.52108075623258     -4.99727542242016     -0.91733579047518
  H   4.84138991932075     -5.13860627145510     -1.47365603050270
  H   4.63456213153419     -6.94556935618365      2.31773428868033
  H   5.84004028240776      1.31394393437773     -0.25904583594728
  H   3.98442004658728      2.02976496482714      1.23107236090117
