25
Coordinates from ORCA-job 8164optt
  Br  7.51651699535400      1.75588477440038      3.98397855457493
  C   6.82658184930727      0.14438342721787      3.31859002333380
  C   6.13572050978474     -0.73247055703955      4.07593041137140
  C   5.42495603681034     -1.90407767193947      3.44263776097629
  N   5.63290321875907     -1.98450296343859      1.99005478877343
  C   7.01077664384527     -1.80320717888500      1.78815156006226
  C   7.91573192058200     -2.75212310029772      1.54831252128511
  C   9.35107327200755     -2.53153699557620      1.84453209900687
  N   10.36793344068388     -2.89124612336987      1.18020199939624
  C   9.63948176758539     -1.88394004289236      3.16877538459981
  N   8.79529480636231     -1.90838323788576      4.12430251568489
  C   9.10781169843566     -1.08152615727667      5.21206421346076
  N   8.29554877827539     -0.66496324121868      6.08348656736484
  C   6.93266321680813     -0.80872203538779      6.25656737229859
  N   5.95591227303050     -0.72308079630906      5.43804408424187
  C   7.42891472711699     -0.38733095320720      2.09499401433415
  O   8.32489276311503      0.15027169568291      1.48872164716237
  H   5.79605170654234     -2.80815968979086      3.94434276121357
  H   4.36385425082952     -1.78999557229170      3.66960300001726
  H   5.32466049366199     -2.88934431653063      1.65392989887933
  H   7.60173408121314     -3.76809215913901      1.33185583445837
  H   10.09681625288217     -3.33692917389071      0.30285709704911
  H   10.60681335552877     -1.37676091446897      3.23644692890901
  H   10.13711007895456     -0.71749458005457      5.27704723512423
  H   6.67124586252390     -0.90165243641076      7.30757172642142
