23
Coordinates from ORCA-job 8166optt
  Br  1.47286233310099      1.15419181450702     -0.96815308094553
  C   3.01333777080613      0.40791318056497     -0.23299418664595
  C   3.24325497047724     -0.88580834456237     -0.11911085911759
  C   2.44030733536299     -2.10751517840144     -0.44109182770402
  N   1.14572637474705     -2.16615238698894      0.20761199358903
  C   0.72918907450231     -3.36171632896898      0.38470338890399
  C   1.51023035877563     -4.57304491364390      0.18248628534621
  C   2.85067423458288     -4.40421541537535      0.16537039382867
  N   3.34877045502197     -3.15236258439281      0.03105058503995
  C   4.62501736624849     -2.67671253164849      0.40423115096607
  N   5.67639733502947     -3.30361034666747      0.69192552820871
  N   4.48807636538537     -1.29647550446926      0.40590399460995
  N   5.60028303357336     -0.48007553397263      0.22897086460568
  C   5.31955591340164      0.75165708608527      0.13251256315701
  N   4.03075398937812      1.29351217992717      0.20445005865824
  C   -0.59821797315502     -3.52688052444256      0.95284543898197
  N   -1.64487047781540     -3.70500893041181      1.38317348122716
  H   2.27917480980903     -2.22497070896560     -1.52401022602174
  H   1.05733235355177     -5.54548829872812      0.28189857070188
  H   3.55920971494674     -5.21206103156606      0.29842552607074
  H   5.56800889949386     -4.30958250998552      0.62290756287278
  H   6.13505576025862      1.44926323672699     -0.00714394998864
  H   3.94087000251672      2.24414357537991     -0.12096325634459
