25
Coordinates from ORCA-job 8167optt
  Br  1.12431984537315      0.44860609916880     -0.64567118522904
  C   2.97249124778994      0.24294886940877     -0.40062332990992
  C   3.60529988816695     -0.95409296482878     -0.52914668124212
  C   2.89229753248334     -2.23499073174930     -0.87766822144868
  N   2.26480875598892     -2.84061676544386      0.29603625799979
  C   3.08842799656618     -3.77846978316549      1.03247112363739
  C   4.42006344232375     -3.12013275183515      1.46995811452596
  C   4.98336578381721     -3.86623166921502      2.59457241007134
  N   5.37811701484590     -4.44402120754730      3.50037024380243
  C   5.42267188182584     -3.17647020898568      0.30853172275424
  O   5.91180059255121     -4.19489908925541     -0.05190686395414
  O   5.75531115844033     -2.01465803229496     -0.31038854824997
  C   5.00872216622003     -0.86811787617906     -0.22263727905710
  N   5.67280519392329      0.18159996806453      0.08046598382187
  C   5.02881017824629      1.40715866572465      0.11519481122103
  N   5.55485956582789      2.53910432925053      0.31642293550106
  N   3.63267531209508      1.36630322020378     -0.07965667260622
  H   3.58431981863945     -2.91700621982590     -1.38773029776471
  H   2.10872158970265     -2.00508528054533     -1.59763577903000
  H   1.38640496048724     -3.27519550522399      0.04877382941392
  H   3.35329813601930     -4.68256306679892      0.46861200354008
  H   2.54664957612053     -4.08135912712726      1.92711962536801
  H   4.22864393373265     -2.09991802070946      1.80591801314935
  H   6.55503164500593      2.43340931576602      0.45613354849526
  H   3.15108278380690      2.25169783314380     -0.01051576480985
