27
Coordinates from ORCA-job 8168optt
  Br  1.16287982470607      0.38096778211406     -0.65784264951025
  C   3.00850325742169      0.12059999071128     -0.49267196153225
  C   3.60090097957713     -1.08943920821252     -0.59651142102924
  C   2.84825997158414     -2.32236746892891     -1.04748560893383
  N   2.18102261293842     -3.06543483502919      0.01120726822497
  C   2.96623220304278     -3.97894677063423      0.81946071781700
  C   4.29326601699330     -3.38320322831192      1.28940601106756
  C   5.39270445737817     -3.45290279499647      0.24591592110488
  N   6.07532374850758     -4.48900142404372     -0.01763760340754
  N   5.72545850573308     -2.28650425269024     -0.42822774227506
  C   5.03786399221950     -1.08311992941485     -0.40429256041515
  C   5.72332127843723      0.08053256364259     -0.26383480937190
  C   5.05367535903724      1.34820253352007     -0.22525474518946
  O   5.52313299516301      2.43826470056070     -0.11444846050880
  O   3.64636906330154      1.25931792913493     -0.27259572314846
  C   0.82422226256459     -3.21348466611954     -0.02444278338094
  O   0.08232316858993     -2.72657970341989     -0.84075312768325
  H   3.54053126540728     -2.98519434899038     -1.57395205983540
  H   2.07028448188907     -2.02811567437011     -1.74963072424327
  H   3.18178364219541     -4.89832662187824      0.26107385936064
  H   2.36781958105352     -4.25191899038241      1.68862129510338
  H   4.64554515900532     -3.98293579029004      2.12906432178872
  H   4.14258960792482     -2.36732768720045      1.65546242590863
  H   5.80838100215209     -5.26830111416132      0.57736285581807
  H   6.65747668466014     -2.29015642358014     -0.81688836213851
  H   6.79440966473196      0.09699312412722     -0.12661668768192
  H   0.45671921378492     -3.84061769115624      0.80451235409138
