27
Coordinates from ORCA-job 8171optt
  Br  1.84937350124365      0.94607537995855     -0.01679574054058
  C   3.49230696133775      0.03616636732189     -0.21209538870204
  C   3.54893902749808     -1.32249794469398      0.03940520892056
  C   2.37534477827462     -2.17461388872592      0.43453757839472
  N   2.67959769317601     -3.58989195602360      0.51505710149243
  C   3.85349497604819     -4.00102084310492      0.37612607768551
  C   4.22332885475443     -5.45341620346909      0.45351358482090
  C   4.53591239514475     -6.07178545810689     -0.90362150412587
  N   3.89592056693866     -7.04423980882773     -1.41235481061554
  N   5.61027922189939     -5.49954944971892     -1.54534023212157
  C   6.13421819427288     -5.84955625385706     -2.79508916498846
  N   5.76294781961171     -6.75270723594832     -3.58775817928936
  O   4.97370553871580     -3.23673777240360      0.13834697087197
  C   4.80795525297896     -1.89940228481079     -0.10435769033334
  N   5.90513399254854     -1.27875895918058     -0.46361409967028
  C   5.80836194307759      0.02747685712254     -0.70588595933033
  C   4.62724230101183      0.73876635429790     -0.59263409766958
  H   1.56181858162723     -2.04037218823840     -0.28265534962112
  H   1.97669742672090     -1.84910932571342      1.39978634249999
  H   3.38937323175332     -5.98513637192243      0.90092067052718
  H   5.10160360154678     -5.55342737372069      1.09651030370787
  H   3.13629246940552     -7.33698830137475     -0.80667464631818
  H   6.03387512040102     -4.70317573552178     -1.09562138368352
  H   6.97956632323040     -5.21158168862898     -3.05303456274639
  H   4.96588260856467     -7.26334364742426     -3.20988504067502
  H   6.72171348884908      0.52843260420525     -1.00340360337671
  H   4.59011412936800      1.79939512851012     -0.79238238511321
