23
Coordinates from ORCA-job 8173optt
  Br  2.26654338027635      1.20262554154767     -3.42074855999980
  C   3.36369934573224      1.04860559743941     -1.89886060509108
  C   3.73919601975261      2.11365241637515     -1.17613170496945
  C   3.13545625171066      3.47435243099002     -1.21052245080011
  N   1.95068868762376      3.72751915547389     -0.85575396869527
  C   1.01797183784945      2.76161686582758     -0.49069655425102
  C   0.98181118802798      2.00838332870577      0.61296509782666
  C   1.98984417267649      1.96484173579003      1.69510984539559
  N   2.55112317532762      2.89704955660489      2.31189606006664
  O   2.29693803941636      0.65823525467884      2.10810069193508
  C   2.52597403547586     -0.19772137593697      1.07143692491942
  C   1.46944318927220     -1.21397013084998      0.79640827655761
  O   0.41056114622083     -1.20402700805592      1.35696143057319
  C   3.62268727504873     -0.04547683640159      0.32169182941174
  S   3.76562488917333     -0.58722448006682     -1.36017374698723
  C   4.63783644642861      1.00883972883025      0.59357907950503
  N   4.69989249294375      2.02810506058601     -0.15778498644254
  H   3.79799713660226      4.30832049282656     -1.43355296062127
  H   0.18553283895320      2.69858756274439     -1.18518190541780
  H   0.14413754069788      1.33313079551328      0.74034469950263
  H   2.20601912258601      3.79690327765523      1.98315861312653
  H   1.72753990606172     -1.97005271717591      0.03905002303362
  H   5.34348188214208      0.89470374689817      1.41170487142184
