24
Coordinates from ORCA-job 8180optt
  Br  1.61737811401170      1.98862813100270     -1.42662309895823
  C   3.32516343362864      1.33199316616809     -0.95952642334083
  C   4.21723820757494      2.06478670513396     -0.25312370938505
  C   5.59048401332569      1.61079875299871     -0.01503418176079
  N   6.60507875318855      2.34398154667584      0.31254651209995
  C   6.71669110762554      3.71637269166785      0.25700785261803
  C   5.85231642923641      4.71248029400271     -0.02767903103624
  C   4.40271250487813      4.61846239747917     -0.16311766016669
  O   3.71165791683444      5.50104221266552     -0.60956753470176
  C   3.78476787537485      3.34869903710585      0.37619657537669
  N   2.97384779553357      3.43623208273828      1.33674399489482
  C   5.86756268804230      0.17702487040422     -0.13530949250080
  C   7.18791016100890     -0.29082360563878      0.43457805312093
  C   7.39031912100086     -1.73255890679150      0.37858911984716
  C   7.55018727890299     -2.91801921409843      0.32392321191356
  C   5.05470746069711     -0.66666304825142     -0.78758341584805
  S   3.55516208073451     -0.26922948242882     -1.52249672916680
  H   7.74584608312705      4.02275919250609      0.41717476073418
  H   6.24944280935925      5.71548939768726     -0.12253885209413
  H   2.63471651833819      2.51582257644197      1.62510908425691
  H   7.26197052630695      0.05989094524272      1.46671987805959
  H   7.99183662427844      0.22302379372730     -0.09647716195414
  H   7.70781937240038     -3.96965545859908      0.28700271818976
  H   5.32518312459054     -1.70853807784027     -0.91351447019807
