26
Coordinates from ORCA-job 8186optt
  Br  0.97062133319932      0.19659013545680     -0.15563177051447
  C   2.81315301772575     -0.05973740401982      0.06859205511664
  C   3.40016526358128     -1.25759858141637      0.23191917734616
  C   2.67240304652120     -2.58197458794036      0.16522799176276
  N   3.13009376888656     -3.45402591456562     -0.89707398972794
  C   4.30315788072676     -4.26205509682111     -0.64237164117669
  C   5.62568981413187     -3.51502742644083     -0.47855738380931
  C   6.05300059448967     -2.81334007463825     -1.75104881987380
  O   5.45510391948047     -2.88741495140704     -2.78789051098292
  C   5.66482731673236     -2.49196596700358      0.68389442221205
  C   5.29621736672072     -3.10469439248025      1.96069714123833
  C   5.00092221294486     -3.60976233560643      3.00499989188812
  C   4.84795703641116     -1.23628157566918      0.41431311773788
  N   5.56730874753294     -0.17797244428344      0.37700917489611
  O   4.95468830144220      1.02048724876193      0.16448975406475
  C   3.60048375457798      1.18271804687978      0.04259182941139
  O   3.17213580228651      2.28636889544049     -0.08703427578968
  H   1.61128719219733     -2.38466608761034      0.03396482897975
  H   2.79124590301022     -3.10598707079633      1.11597990396778
  H   3.18000509613376     -2.98872752274197     -1.79448613707392
  H   4.41064790446179     -4.96499704971490     -1.46885019468688
  H   4.12164804399354     -4.84682052804957      0.26215893231261
  H   6.41261549816136     -4.24814207967526     -0.25914635387018
  H   6.97528971681418     -2.20476168824826     -1.67571554077095
  H   6.69319895409049     -2.13346536004666      0.77671572853408
  H   4.74613251374565     -4.05174618736340      3.93925266880836
