24
Coordinates from ORCA-job 8188optt
  Br  2.84291512430823     -1.35882807309253      1.88682342061389
  C   3.11705118616571     -0.29206973519757      0.36042071243548
  C   2.64336981344224      0.96836471065742      0.33714542963570
  C   1.85097896316154      1.60143324384871      1.43808983046525
  N   0.62926130106458      1.82406688519350      1.18652514040786
  C   0.14891999776502      3.10653604127219      1.53243321871075
  C   -0.24187288746050      3.74477973587053      0.42336881132894
  C   0.13104741350263      5.14305278748379      0.03886924683689
  O   -0.23522595170623      6.15981734105510      0.56953332788735
  C   1.04430835520985      5.12539542183722     -1.15565356382609
  C   1.96865275855083      4.18710197511898     -1.44902199350811
  N   2.40908189954401      3.22704159183378     -0.55906149449996
  C   2.83654566701328      1.90283774668126     -0.78019300620224
  C   3.40401082577023      1.50635291789861     -1.93502740405703
  S   4.02066121022029     -0.06526016336479     -2.24673420753181
  C   3.83583219401628     -0.96798073855000     -0.72992356095502
  O   4.26894724549557     -2.08760077302229     -0.67765447470534
  H   2.41869837661980      2.15800511895287      2.19792486529830
  H   0.43721150991493      3.58604002472756      2.46645443069093
  H   -0.40491329535961      3.09739114810662     -0.43184745383327
  H   0.92299207005082      5.95782273032798     -1.83630040655378
  H   2.47749721635391      4.21119082539337     -2.40634744168368
  H   2.11639825844822      3.41899880895027      0.37834405164121
  H   3.52863074790837      2.18751042801740     -2.76616747859623
