21
Coordinates from ORCA-job 8194optt
  Br  1.10374859740464     -0.06110537161882     -0.25094241061541
  C   2.96858120273900      0.00063523470734      0.00534915035119
  C   3.70560914726760     -1.13581492479801     -0.13232558121074
  C   3.38757273921881     -2.48515002519498     -0.47416714734374
  N   4.46258499324843     -3.22923776261365     -0.48103927744228
  C   5.55199031977164     -2.44174812156997     -0.14624554654850
  C   6.90667483067366     -3.06161662790346     -0.09854127481149
  C   7.69592172645762     -2.76351321344899      1.14277444887877
  O   7.41546463656704     -1.97002343426593      1.99492430509547
  C   9.01475783966928     -3.54965348456378      1.29359570866339
  O   9.40275612808322     -4.34360618301391      0.49233512569368
  C   9.77925594091274     -3.23383093449650      2.51824551975679
  N   10.38776191694967     -2.99676200842233      3.45898382184249
  C   5.14982610280465     -1.15513410249896      0.07548009730796
  S   5.99169918403466      0.26951368584380      0.50812907286917
  C   4.71696158890153      1.39761401472496      0.53189136730539
  N   3.45191122236206      1.21988370150569      0.31964364869860
  H   2.40726201531698     -2.87457010300386     -0.70469836830560
  H   7.53753229570355     -2.75558924359793     -0.94424181704583
  H   6.80938245093980     -4.14445921261948     -0.20137857212627
  H   5.05074512097334      2.39916811684879      0.78522772898696
