25
Coordinates from ORCA-job 8195optt
  Br  4.64533879040315     -0.11386236516423     -4.29031801024351
  C   5.35897479273622     -1.01936515682844     -2.78030443732068
  C   5.26438602918237     -2.36528137194946     -2.64352603256960
  C   5.68231268953877     -2.82137791549348     -1.26768919752427
  N   6.93237649492509     -2.13070188378238     -0.90831218763306
  C   7.11364314147510     -0.89627886066062     -1.38102787470734
  C   8.52517205744256     -0.42274296472997     -1.50360218118658
  C   9.21551136162102     -1.02837122176509     -2.46747904287192
  O   8.56656008535547     -2.05175819274750     -3.11563410058943
  C   8.82322653582330     -2.44517556850227     -4.40041961437108
  O   9.79908433562535     -2.15644849688423     -5.00338544540842
  C   7.60174860118458     -3.22868840386457     -4.90139143677203
  N   7.39714524881645     -3.21876513464724     -6.13925609307123
  N   6.76542001202682     -3.75815923940392     -3.89353491495602
  C   5.42239308201360     -3.24388652065477     -3.83617129724004
  N   4.65479942109474     -3.44779494926996     -4.81136227745411
  N   6.18100970490414     -0.23526420074617     -2.01706722791376
  H   4.91819194920570     -2.55595793118258     -0.53450985997625
  H   5.84446391515841     -3.89702091563592     -1.20952322908505
  H   7.75266378968403     -2.66097590121907     -0.65279347568885
  H   8.91982244553422      0.41567247836404     -0.95145683690041
  H   10.21709800422725     -0.79373343352714     -2.80060289367008
  H   6.51260183215040     -3.68342720439391     -6.35592986461954
  H   7.21315621663066     -3.66837593906055     -2.99602764982503
  H   3.77089946324046     -2.96125870625054     -4.68067481840165
