24
Coordinates from ORCA-job 8198optt
  Br  1.13822430333664     -1.12645065242547     -1.24688519149476
  C   2.66765689763504     -0.38986507900084     -0.43979016259760
  C   3.00584430370864      0.89670062704809     -0.60058771989307
  C   2.33489262454625      1.81036940767727     -1.54766215761628
  N   2.03141226468443      3.01928030123977     -1.32288419287132
  C   2.19240691612900      3.60116204808173     -0.06423289021896
  C   3.10888262211805      3.38095437603379      0.88404110932060
  C   4.23222928231285      2.42026831997385      0.92155294733927
  O   5.13840452974406      2.54366312180677      1.71144254646495
  N   4.21029312637191      1.36396363278273      0.01861900916696
  C   5.18179471606336      0.34503015531314      0.15457979605389
  C   4.81243165080491     -0.93262720711329      0.30077323445374
  N   3.47368579789142     -1.29443299033678      0.24569659812662
  C   6.00154476746245     -1.80800523529254      0.39030978359751
  C   7.08627301349648     -1.03820465222428      0.27220698327597
  C   6.65082652643417      0.38476358696158      0.05981034115684
  N   7.34803656766274      1.40006856703985     -0.22492979891269
  H   2.13103672301516      1.42055390452128     -2.54406374658836
  H   1.47301876201515      4.39388399833763      0.10873256005301
  H   3.09453589246065      4.01848593631957      1.75825613897889
  H   3.22039811366300     -2.26801725167843      0.20088606407462
  H   5.96623033703438     -2.87875444312749      0.52886036660491
  H   8.12025352342492     -1.34750456238337      0.29776848526548
  H   8.33968673798427      1.15971409044542     -0.26050010374022
