22
Coordinates from ORCA-job 8201optt
  Br  1.73930060584882     -1.55095881256821      0.89494554893407
  C   2.62905577364550     -0.05348240606686      0.19222608162956
  C   2.42508180499275      1.22597123551693      0.55887442767566
  C   1.68864696271683      1.46707085980722      1.83012708809021
  N   1.14592671284245      2.54399846179283      2.22165137302004
  C   1.16357112497317      3.54459545970428      1.26466791937690
  C   0.40851915278337      3.51336774239877      0.17085055930749
  C   0.81406141967288      4.37845653834432     -0.94209141457265
  O   0.12561037695446      5.05955243423556     -1.65187168467506
  N   2.20856638360365      4.33995296250209     -1.14802041473614
  C   3.16022988811348      3.38399408770879     -0.86614104782624
  C   3.26428919931055      2.18870810265578     -0.22604374865904
  C   4.57368768886685      1.53577573428271     -0.48035539411767
  N   4.73732539007172      0.29591644225185     -0.71993434724616
  O   3.53693559079325     -0.43269273690639     -0.72507156339877
  C   5.79016299810289      2.31434513524350     -0.49312609642693
  N   6.70993653370200      2.99748269034058     -0.50450618460651
  H   1.66131726875648      0.61844328726102      2.50739532204086
  H   1.89570311729744      4.33285455682995      1.41995423579669
  H   -0.38689067529203      2.79488485266683      0.02550647356662
  H   2.50448788831690      5.02979959056026     -1.82595391151624
  H   4.09147479392655      3.69396378143816     -1.32908322165665
