22
Coordinates from ORCA-job 8204optt
  Br  1.85667120934568     -1.36810647039181      1.52007199696573
  C   3.55030749027376     -0.78112094790036      0.94243375711351
  C   3.75068830990521      0.48452519017411      0.56198794564662
  C   2.69699154346164      1.52261168446814      0.52232195322003
  N   2.52906861669950      2.14187817253179     -0.57570517679388
  C   2.31835026015403      3.50753816610014     -0.35896748512002
  C   3.42555604176648      4.19299716526108     -0.69777764026675
  C   4.02835763198555      4.82018393224492      0.48623986528943
  O   3.81500993555939      5.80780734104585      1.10089316661242
  S   5.05870620922106      3.48342813889642      1.34360334348138
  C   5.58159246282550      2.21879123035619      0.19316909004199
  C   6.76585300748004      2.56028444372417     -0.51934219910315
  C   7.73903576159639      2.92494765380381     -1.12041007700662
  C   5.07753992351345      0.94805476889284      0.10062227437989
  N   5.87929098542277      0.01240634049047     -0.55555626602396
  C   5.83247445724667     -1.21738515798089     -0.28346729384795
  S   4.75739126250888     -2.02629701077927      0.86026679015417
  H   2.32544099782236      1.89520118043333      1.48254032858295
  H   1.61266852147192      3.84924561724496      0.39623530475446
  H   4.12035130319616      3.68492553817252     -1.35653069530072
  H   8.60428137975010      3.23634138744648     -1.65503306546247
  H   6.50237268879337     -1.90925836423495     -0.78659591731705
