23
Coordinates from ORCA-job 8213optt
  Br  3.44140630171285     -0.43550077639430     -1.80537249009922
  C   2.89336084323777     -0.05780981384965     -0.02905647610228
  C   3.66416135551532      0.56243056859367      0.94283847629398
  C   5.11890975190673      0.84655759415130      0.78228669844644
  N   5.96142586646714      0.23793999908791      0.03576192968722
  C   5.63119679290962      1.90777135144891      1.64162523358449
  C   4.93507126150261      2.33333414110680      2.70450943160067
  N   3.67752400937004      1.87130964262615      3.04440728112162
  C   3.07566715652729      1.06209868565403      2.24259149887731
  C   1.69761731773873      0.65366349231908      2.51969232597410
  C   1.12843184833505     -0.09154506549945      1.49114766794124
  C   -0.22286812012091     -0.23885117146513      1.64740611849641
  O   -0.54917899749641      0.33726161632174      2.85133013253292
  C   -0.70137845934844     -0.72315879114097      0.43723898476651
  C   0.62378712252723      0.88081446594474      3.33975703627575
  C   1.54734677783906     -0.41701219044695      0.24714093391136
  N   0.39759343741584     -0.82497186060260     -0.40141328854182
  H   5.55284043156306     -0.54618755417395     -0.46107432108281
  H   6.63431937373053      2.25587869976250      1.43845151321971
  H   5.34545310939807      3.06873418442109      3.38500061846762
  H   -1.67931287754901     -1.00462244154804      0.08932146002322
  H   0.51413208619462      1.40036135334840      4.27659521927574
  H   0.35949361062319     -1.20349612966528     -1.33418598467022
