22
Coordinates from ORCA-job 8214optt
  Br  1.13684544957315     -0.02303252894616     -0.30811687798384
  C   2.99481081894423      0.12838832814950     -0.17307842183248
  C   3.65191456583951      1.32295502392056     -0.10978340795199
  C   3.26849238565116      2.69105102574432     -0.09696808324003
  N   4.32620752381163      3.46611238666298     -0.05022652744402
  C   5.44002617180302      2.65930878975453     -0.03506282912697
  C   6.75037448665328      3.21446263116935      0.01798478222225
  N   7.82067935242841      3.62905557653337      0.06163831600337
  C   5.09677292447734      1.31868996933852     -0.06960470594968
  C   5.79912589488347      0.07865462134541     -0.07414189405078
  C   5.07159274828681     -1.08928003339753     -0.08269931224144
  N   3.68967787343858     -1.01253676685215     -0.14965139115609
  C   5.63294437657207     -2.45301092858022     -0.01047684843552
  N   4.97625930341711     -3.53400563134600      0.18481393425112
  C   7.07492774646089     -2.56326408209162     -0.18192997779534
  C   7.92677664700491     -1.53570325746785     -0.20687674299749
  S   7.53184370651130      0.13609888610611     -0.08245982185130
  H   2.26443576483261      3.08746460591423     -0.11936950964128
  H   3.18064031578393     -1.87885748073085     -0.25418285610232
  H   3.98337932998637     -3.41218491186584      0.36541577723946
  H   7.45119813677797     -3.57569670860646     -0.24686213572042
  H   8.99307447686219     -1.69866951475419     -0.29836146619521
