24
Coordinates from ORCA-job 8221optt
  Br  0.99147349551090     -0.36309965078179      0.19759572574387
  C   2.85500606221969     -0.14549862301870      0.05358651033005
  C   3.66673284306406     -1.21833800597799     -0.00418509264824
  C   3.25403547632506     -2.67155683916435      0.01388991597540
  N   4.42256314812308     -3.42457163246420     -0.44660773227811
  C   5.60044466949887     -2.61997197721883     -0.09325828621744
  C   6.69356663827782     -2.84770245604253     -1.04172623999677
  N   7.51854365244097     -3.04832261734209     -1.81000393703104
  C   5.09940096396465     -1.17787223188663     -0.06827481958600
  C   5.82783002987318     -0.05215792043500     -0.07507158987367
  N   7.24097653673555     -0.08081457994484     -0.02707638316189
  C   7.81787979203921      0.18362731086776      1.28997751683053
  C   7.37790577848439     -0.84027310793984      2.24430035954407
  N   7.00001331738513     -1.63318266788521      2.97879572664625
  S   5.08327802000153      1.52041972558419     -0.06824426404513
  C   3.30459003911392      1.24657070432397      0.00716857579802
  O   2.60079745239963      2.21637321888395      0.01214804251392
  H   2.38497951033113     -2.86989183417372     -0.61038377556323
  H   2.99536137093518     -2.95481972504505      1.03929619211314
  H   4.38409969682658     -3.52754248832220     -1.45423774936217
  H   5.95099783488480     -2.90328004164182      0.90390708271705
  H   7.66774257387859      0.51303822372935     -0.72827797404834
  H   7.54125088514905      1.16164757264049      1.70089237679971
  H   8.90353021253689      0.13721964325509      1.20778981880000
