19
Coordinates from ORCA-job 8222optt
  Br  1.09286154387864      0.07697567758051     -0.06843257477087
  C   2.95732652100639      0.09643050076105     -0.05894900507518
  C   3.65926720574637      1.26754588175825     -0.05454734039900
  C   5.10709722172779      1.31771278752375     -0.05168090497789
  N   5.47851053417466      2.63946699262920     -0.04961324410759
  C   4.36333315220827      3.41916606752976     -0.05030365255493
  C   4.46198171761687      4.83998654778336     -0.04807847042451
  N   4.56828621549508      5.98105860432743     -0.04604753069540
  C   3.22725417083714      2.65239640594857     -0.05323482649717
  C   1.91927130307612      3.20201891172926     -0.05227225769241
  N   0.88785740298621      3.70446403286230     -0.05137724049982
  C   5.94775568931212      0.24830954929074     -0.05199636984618
  S   5.34639139659775     -1.36151766086638     -0.05378565974747
  C   3.56312636629503     -1.24060051774496     -0.05677138351656
  O   2.95443967385632     -2.27604387546428     -0.05717955935574
  C   7.40510375062010      0.42557336552948     -0.05108536620470
  O   7.93055690288761      1.51506487646503     -0.04983930748937
  H   6.44538626001594      2.93776825827049     -0.04808488336670
  H   8.00819297166157     -0.49677640591358     -0.05172042277851
