25
Coordinates from ORCA-job 8223optt
  Br  1.02617625204040      0.04346825489238     -0.13660502768489
  C   2.88213172778829     -0.03160621060750      0.07236922295914
  C   3.58732829806216     -1.16112500062405      0.09669330768319
  C   3.23306536963600     -2.62036635796572     -0.04163820220081
  N   4.50520714093086     -3.27978266189680     -0.39270762365083
  C   5.57698061317732     -2.45492995508044      0.18630061850307
  C   6.82464826130617     -2.54365079118139     -0.57336377737238
  N   7.79479206604749     -2.57223215368306     -1.18167341314409
  C   5.01332293013703     -1.04589448050014      0.23016575096293
  C   5.61847937531348      0.13950673209815      0.34669974681623
  O   6.96264663345839      0.26993771481434      0.48994265286959
  C   7.66922742681070      0.66503089906957     -0.68741098261813
  C   9.12991381594785      0.33705692322600     -0.46648175834548
  O   10.00820970518409      0.87789819826523     -1.07005907412911
  C   4.80245254062533      1.36432505645304      0.38374061790815
  N   5.18204926623687      2.54719989134878      0.56797998187726
  O   3.44226841954352      1.18189467066598      0.18717782053493
  H   2.47946273923414     -2.81386263501351     -0.80272276559021
  H   2.86418569456289     -3.01999229445621      0.90645305182185
  H   4.61041705114646     -3.29023476613033     -1.40118920621293
  H   5.78227156738510     -2.79034562793064      1.20861277786081
  H   7.54784844614777      1.73023588474644     -0.89409961872552
  H   7.31984772732069      0.08897698372219     -1.55009231232794
  H   9.31792000848127     -0.45126112613018      0.28420670580090
  H   6.18514692347565      2.57275285189792      0.72970150640425
