23
Coordinates from ORCA-job 8224optt
  Br  1.33485430752509     -0.57742674271343     -0.57932482264325
  C   0.75802364828788      1.18142127080705     -0.18635970186678
  C   1.64917630495238      2.13006540121684      0.19568835798559
  C   2.99765863003857      1.80400044696607      0.72091479761109
  N   4.04025423573674      2.51799794619312      0.76562202076218
  C   4.10742920902200      3.80958679587107      0.24059391030498
  C   3.12396714425532      4.70945748171940      0.11797194459913
  N   1.75948163997541      4.59198245132176      0.36193872910486
  C   1.13596356926821      3.48144549477902      0.34456949849011
  N   -0.28873587002336      3.56927311284364      0.43711890207815
  C   -0.78602380257128      4.85361700134069      0.75053900522104
  C   -1.78504074584416      5.47096559541812      0.13731862799633
  S   -2.76635054517468      4.79023265725718     -1.16115799693448
  C   -3.23296682953615      3.32999198531054     -0.24921959212066
  N   -2.44654558328106      2.51182674172515      0.28426988572890
  C   -1.06424585646404      2.48602652410416      0.11236211242883
  N   -0.58098237689524      1.34775005176461     -0.26108757675333
  H   3.05794187202628      0.82363360822465      1.19178302267639
  H   5.11460033340358      4.13095219818758      0.00772108271787
  H   3.40608785413898      5.70648012161639     -0.19914501375234
  H   -0.21734642025802      5.35979065381006      1.51738351128752
  H   -2.06718872415422      6.46457469805893      0.45618845530440
  H   -4.30301199442824      3.18335450417737     -0.12168916022653
