23
Coordinates from ORCA-job 8225optt
  Br  1.18733422622806      6.26124012708358      1.72769238249563
  C   2.59252875252558      5.58670826433859      0.66396106125446
  C   2.78836076929805      4.25999347107829      0.52022989365804
  C   2.14155657442241      3.24043960009926      1.37879903928098
  N   1.89625853220857      2.02483135907403      1.12687996502207
  C   2.18854612393636      1.41877615878271     -0.09088889080028
  C   3.17756231090234      1.71051214244072     -0.94663946201099
  N   4.10754125670605      2.74141749561423     -0.91473641458791
  C   3.91457982503681      3.84389128998196     -0.32013153716902
  N   4.91473661398627      4.85832830973417     -0.45537307898777
  C   6.20193323691402      4.47745272658628     -0.91471539830093
  N   7.29876550697002      5.06802185505290     -0.70693111360867
  C   7.38975508629233      6.27221887631730     -0.02067580422141
  C   6.49358133571557      7.24666898236268     -0.10010249291202
  O   5.35121263000659      7.08590402917008     -0.87770487736304
  C   4.50015824222758      6.17277609295107     -0.36281400747365
  N   3.37815783260398      6.55726293471082      0.10105097870342
  H   1.90437523911139      3.59100019466432      2.38197310952568
  H   1.59733629741752      0.53460680145981     -0.29214710109061
  H   3.33065676462379      1.03357820359617     -1.77838244970448
  H   6.18207981980456      3.53226208227099     -1.43998390965711
  H   8.30346458136208      6.42874766906124      0.53635726723738
  H   6.58751844170002      8.21936133356876      0.36028284071025
