24
Coordinates from ORCA-job 8227optt
  Br  1.24918049663816      0.37317730412578     -0.40254175072488
  C   3.10192801032293      0.02962757230948     -0.24546523958217
  C   3.62867569155680     -1.22448592885422     -0.09238026082409
  C   2.89636248084218     -2.50929516639915      0.11222042982925
  N   1.71203093128803     -2.67409377655823      0.55888534707623
  C   3.69381055474805     -3.68434854853153     -0.21528382891097
  C   5.01869002454584     -3.59530796865921     -0.40016972026737
  N   5.74636050498304     -2.41855783714383     -0.34841725775114
  C   5.07617594311505     -1.33250731413387     -0.20617173159160
  N   5.78756194427874     -0.11792070638322     -0.17675272003143
  C   5.11429717706240      1.04634944339222     -0.27950437708272
  N   3.83047812955338      1.16297633457968     -0.34936160506047
  C   7.20038972166169     -0.07511718020020     -0.06780137632517
  C   8.11888339841842     -0.99041125020804     -0.47376382178629
  O   9.35538347773837     -0.53286446835389     -0.19265129690101
  C   9.23270467237140      0.66980433778672      0.40251881011991
  C   7.93233399919194      1.01331012200599      0.51393426172165
  H   1.25680348902616     -1.80248002621497      0.80675438039016
  H   3.17993105656385     -4.63490981161944     -0.23171832396283
  H   5.61161067185112     -4.47986864728906     -0.59549358680652
  H   5.72278670846506      1.94028407782159     -0.32223223130985
  H   8.03705754468915     -1.95536816984556     -0.93082007370602
  H   10.14570682808762      1.15276325180394      0.70217245257671
  H   7.54685654300056      1.90524435656903      0.97704352091061
