28
Coordinates from ORCA-job 8228optt
  Br  1.07823668995926     -0.18142822865487      0.15700066523293
  C   2.92685375877670      0.08162955859559     -0.01846942563323
  C   3.52443957553047      1.30348939749364      0.04584899686509
  C   4.96182645303259      1.28471191155064     -0.15271245016588
  N   5.70550036103832      2.43457945314729     -0.10271105061108
  C   5.37667516998489      3.71996323660057     -0.71449263674588
  C   4.15940554659651      4.42111210565089     -0.13642704757884
  N   2.91405914412070      3.68322963685571     -0.35807376164502
  C   2.81351650439226      2.53166878288624      0.47840176786152
  N   2.19959756051536      2.54338975929481      1.58021900648556
  N   5.65383774855749      0.18418022783246     -0.29474154825849
  C   5.03706576745845     -1.03658990926098     -0.30643660361360
  N   3.63140385652470     -1.03477980351206     -0.23909318162796
  N   5.60151621098794     -2.17366641413411     -0.39961001312419
  C   7.04514613287133     -2.15464499983755     -0.46956010639409
  C   7.57885153460227     -1.46485256650359     -1.71128301071311
  O   8.73145778498599     -1.17845397300524     -1.87131612539004
  H   6.68304026450685      2.19104112742220     -0.19641140895472
  H   5.23359873727051      3.60334325049691     -1.79666230352789
  H   6.25168235026917      4.35455833727019     -0.57300943085649
  H   4.07066436919840      5.40165199027773     -0.60655801592856
  H   4.27720621275360      4.57175125382346      0.93721307715355
  H   2.86689646710402      3.40140327376375     -1.33310908726851
  H   1.74530315273263      3.45036564279960      1.70287697797610
  H   3.18034772536568     -1.93631973751218     -0.29897611054876
  H   7.40823810590944     -3.18447637898182     -0.49660198051732
  H   7.50842087685956     -1.66686824278231      0.39346510400024
  H   6.82121193809481     -1.26198869157700     -2.49477029647131
