28
Coordinates from ORCA-job 8230optt
  Br  0.99080588708661     -0.01675683495794      0.21102611058430
  C   2.85930030608883      0.08739809824351      0.10531112462061
  C   3.51748614205047      1.23315549443105      0.34671793116628
  C   4.95894821922869      1.33972063053265      0.25462517516175
  N   5.63671149310983      2.56246765435402      0.56055812021012
  C   5.47276319506994      3.70902729554114     -0.33982587151595
  C   4.11692664925978      4.42167053538409     -0.25047615211783
  N   3.02263612576715      3.45943800237870     -0.43313031875148
  C   2.91821547676452      2.57925342327265      0.65233184156700
  O   2.59709361665675      2.93012935051998      1.75249753243484
  C   5.64285519204417      0.22476482484508     -0.10541893368910
  C   7.13250466126589      0.22774126022821     -0.28233174765137
  C   7.89511655514369     -1.03325298125054      0.03657654608114
  O   7.43572635660376     -2.14259334290749      0.06640608362184
  N   4.96325907299422     -0.93098519704665     -0.37088647254976
  C   3.58285462718116     -1.13035590769759     -0.26770975821461
  N   2.99058099666994     -2.23603760073831     -0.48147552318559
  H   5.46653680458807      2.83703079233669      1.52234711397128
  H   5.62426133782589      3.34242488673898     -1.35915440629757
  H   6.27272813413671      4.42420066689970     -0.13291554841147
  H   4.04364124102656      5.20574181259842     -1.00477026637469
  H   3.98270594227980      4.88398273495793      0.72793464227372
  H   3.15020602480023      2.94411474840015     -1.29702722552910
  H   7.54791941411936      1.05935941397206      0.28593938002679
  H   7.38073859066237      0.44338041370907     -1.33183127000014
  H   8.97529554755868     -0.87734185699882      0.21006478310464
  H   5.52768886064963     -1.75973928701511     -0.50919916636965
  H   3.63849352936724     -2.97793903073165     -0.73618372416600
