18
Coordinates from ORCA-job 8232optt
  Br  0.62547912739752     -0.13350547306494     -0.63082037660784
  C   2.46579455012783     -0.31553847812188     -0.43132174499817
  C   3.37126162815216     -0.09805989065512     -1.38733319003056
  C   3.03762598300793      0.45618382625545     -2.71391605894227
  N   3.51381798734985      0.10417384040438     -3.83831453619860
  C   4.47662606106107     -0.86431629621561     -4.00477821871785
  C   5.45313756370582     -1.21453546932145     -3.14188990972327
  N   5.69657483252654     -0.71150174306753     -1.88620915042967
  C   4.82352531842782     -0.22526171039926     -1.12340244692847
  O   5.30484583612783      0.31935983460904      0.05170218780248
  C   4.58863998228862      0.31216492641633      1.19372057811688
  O   4.91465039700074      0.87844450713116      2.17188157401640
  S   3.08045990723851     -0.76037613364135      1.17116180926677
  O   3.57261174596900     -2.10217725546199      1.12647739515159
  O   2.17583943769795     -0.30022820111543      2.16618466149589
  H   2.30843284846278      1.26440831352695     -2.69998316651662
  H   4.50385672086865     -1.29451723205886     -4.99775309192736
  H   6.21482007258933     -1.90071736521989     -3.48940631482929
