30
Coordinates from ORCA-job 8233optt
  Br  1.04550477679362     -0.65391796516096      1.42520261833231
  C   2.85374925015329     -0.47963023433242      0.86938692248605
  C   3.64405794058773     -1.57138964377449      0.51635812552889
  C   3.09971013623919     -2.98451343895858      0.51348673475645
  N   3.28401886004405     -3.73559436555824     -0.71348014580548
  C   4.57959560443909     -4.34584521785961     -0.90723555883905
  C   4.46605443061814     -5.36556271350180     -1.96752062923540
  N   4.40383174394705     -6.13483460685612     -2.81404962423138
  C   5.76888268776241     -3.42704852611724     -1.23976569329409
  C   7.08077642585452     -4.20784860369800     -1.08759822322535
  N   7.41050563763050     -4.13693346140971      0.34497869590829
  C   6.61212240757029     -3.08375852648423      0.98001443065256
  C   6.01733807349294     -2.31182361949589     -0.20969051555799
  C   4.96718202556727     -1.28875674735424      0.14324696184413
  C   5.37568242944975      0.04323089657135      0.15052988097477
  N   4.60824417443227      1.07289078178231      0.48313442458070
  C   3.36281866550213      0.81294621080730      0.83975871974077
  H   2.03506488311442     -2.95606596506503      0.72973693912645
  H   3.56211914056728     -3.55276420320689      1.32523592963673
  H   2.97839465021713     -3.22139684476975     -1.53107710291028
  H   4.81491395241688     -4.89059323344037      0.01437622580016
  H   5.63551863024001     -3.01976073954273     -2.24367494038112
  H   7.86707531007453     -3.73303432006641     -1.67904886112560
  H   6.99847543752847     -5.24190853383988     -1.42439963301897
  H   7.31419197330132     -5.02814103443491      0.80655363027709
  H   7.22755804055474     -2.42639433452936      1.59634553142573
  H   5.82080035596009     -3.48547431530522      1.62206256669783
  H   6.84910610085059     -1.74265233496583     -0.63438991985230
  H   6.39571768166066      0.28541919629485     -0.13121569479102
  H   2.73398857342953      1.65215644427214      1.11273820449912
