25
Coordinates from ORCA-job 8234optt
  Br  1.10563837455586      0.38884358433326      0.09300703248590
  C   2.98523083148004      0.19678176717924      0.22132810392810
  C   3.58685199045720     -1.04546713792696      0.35401054498088
  C   2.83763406985388     -2.34649076637272      0.57458748675205
  N   2.82214296711068     -3.32399445889634     -0.50787646715052
  C   4.09100297489799     -3.59756104494584     -1.18545733073759
  C   4.27799963261731     -2.68976942361447     -2.34747651974408
  N   4.36710298679009     -1.98100762435822     -3.24423276522744
  C   5.27843925740723     -3.48456927805212     -0.27421008803176
  C   5.66813523081814     -2.34048681683463      0.37418778807837
  N   6.85409841291971     -2.66852573307629      0.97700545682636
  C   7.11308018903508     -3.96905340612439      0.67816722729860
  N   6.18199723419129     -4.48753880075449     -0.08041133203057
  C   4.99198792573410     -1.05185999941294      0.37563289307795
  C   5.67944629630546      0.15660724657413      0.32690172065946
  N   5.07924959787132      1.33628892450847      0.25277054069375
  C   3.75616686776687      1.35476251261328      0.18205734268885
  H   1.80109285684471     -2.13486274697326      0.82319800324034
  H   3.28949812967874     -2.82200151970030      1.44752440169891
  H   2.10975211444698     -3.09533427778934     -1.18997011432174
  H   4.07595856476007     -4.61567080406213     -1.57787398838424
  H   7.40176794360153     -2.07161308611627      1.57468508477313
  H   7.98842431165618     -4.48054642330572      1.04382385207826
  H   6.76506138580279      0.16750448472792      0.33305838712354
  H   3.27723985339665      2.32256482838015      0.09256273924350
