27
Coordinates from ORCA-job 8237optt
  Br  0.94745950228411     -0.08679488310053     -0.12290789005489
  C   2.81455213671709     -0.01900519894086      0.00248190231407
  C   3.46788761210893      1.13764777217205      0.20429009325231
  C   2.93866084638514      2.52851945303802      0.37409516476073
  N   4.12396671273686      3.35391297582521      0.12753286974368
  C   4.01145980812817      4.68292857504384      0.67860848238071
  C   5.16912476504435      5.50564836345552      0.30776149032475
  N   6.08696570051193      6.13412440486217      0.03594554012601
  C   5.30775753498750      2.60861686982753      0.57166367883097
  C   4.89638967849917      1.19063619595177      0.30531712902988
  C   5.59874305069308      0.05794291562977      0.16705883074808
  N   4.93172139099355     -1.12459162802459     -0.04368591651046
  C   3.54859622143056     -1.27595221221328     -0.11861040066492
  N   2.94695505594463     -2.39247410180259     -0.28072941324973
  C   3.76128068466690     -3.57383017390389     -0.37598720194680
  C   2.93089630546002     -4.78345648634149     -0.44647841112030
  N   2.32151300632224     -5.75087448608843     -0.50108233913471
  H   2.54700849210988      2.64526344735313      1.39936699104153
  H   2.13513822176148      2.76936268515652     -0.32283632695641
  H   3.94020687203335      4.68335477344200      1.77899260940319
  H   3.11167885650591      5.16186439715632      0.28820070892478
  H   5.49877289669378      2.76031995563914      1.64718699302480
  H   6.19200134348056      2.93030876275574      0.02106271774938
  H   6.67678112362321     -0.00818356470574      0.20854866935057
  H   5.48855323958964     -1.95529499077769     -0.15810795003062
  H   4.42601706453675     -3.70284108830701      0.49217202887654
  H   4.39891187675114     -3.57415273310266     -1.27286005021316
