33
Coordinates from ORCA-job 8239optt
  Br  2.38684859238681     -0.92408817793958     -2.61407751589494
  C   2.63925149169386      0.11763464272530     -1.04331892293279
  C   2.86812528421349      1.49281102913251     -1.16503692236615
  C   2.79712968523408      2.25482043568655     -2.46941290136544
  N   1.44013989753033      2.69788456135925     -2.77260728685754
  C   0.78679730138603      3.50741437180234     -1.74665509989216
  C   -0.07432036720942      2.72772209332797     -0.73895420510888
  N   -0.46510503648850      3.53613796960349      0.41430004233610
  C   0.16835030336691      3.18941244004896      1.68492271382701
  C   1.57434495332703      3.79760447116831      1.87251765100408
  C   2.65325082559521      2.76621928592839      2.23796795546499
  C   2.78178551808250      1.75149369244494      1.13507322961919
  C   2.59233999620940      0.39218670422072      1.32477353971331
  C   2.54436331815595     -0.45188232158598      0.21972382035420
  C   2.35589680323161     -1.91683393430307      0.46169286741692
  O   2.21695590513328     -2.37206598788245      1.56368485338323
  N   2.98129858304221      2.25428542264738     -0.08349127398771
  H   3.16414774125140      1.66611012940663     -3.30699674749682
  H   3.42846102221121      3.13687528215588     -2.36322850567297
  H   0.86100101882401      1.92102311254828     -3.07013943128689
  H   0.14607714508991      4.24840562367281     -2.23078171211880
  H   1.55763308338740      4.06060513929700     -1.21208213584113
  H   0.44797325584831      1.82034148660565     -0.41402064037069
  H   -0.97309083755004      2.38570473022562     -1.26110894503270
  H   -1.46735176101358      3.52317184573213      0.52648452465916
  H   -0.48632525732211      3.55042144090736      2.47859158372947
  H   0.22918694805187      2.09654676080331      1.80452644593122
  H   1.54682487418615      4.56935487088217      2.64263732388270
  H   1.87089446016203      4.28945159490655      0.94794562575846
  H   2.41135189518852      2.26178707879133      3.17546217324727
  H   3.60839633989105      3.27842674863224      2.37349183287289
  H   2.45957913562841     -0.03533202972360      2.31057783073151
  H   2.36078788127465     -2.56565051322845     -0.42646176770612
