26
Coordinates from ORCA-job 8240optt
  Br  2.24592834323631     -1.50914852482900      0.65348267442076
  C   2.43978563115610      0.27522032720528      0.04539532518182
  C   1.81724388225830      1.33951027553877      0.63243168324367
  C   1.33346430956850      1.14356924236724      2.03340688744639
  N   0.62084911723473      1.86572682237482      2.79827970015198
  C   -0.04726609270837      2.93263924141515      2.21768101684780
  C   -0.65504475792164      2.78971569473315      1.04190238718152
  N   -1.02756172564857      3.87888172614463      0.26524243903940
  C   -0.11812771973458      4.19090244089713     -0.57204184431717
  C   -0.44086254986391      5.31130628564678     -1.54780479038422
  C   0.60013446840799      6.33068331281001     -1.64875830877450
  C   1.46285198552001      7.15705571477773     -1.73460160415774
  C   1.21300640843971      3.59189485504070     -0.72339708009818
  C   1.97073613665856      2.58493514709994     -0.19590694037019
  N   3.30208337774678      2.61321219850368     -0.67610230508337
  N   3.88817475205998      1.58161224638640     -1.27518855155586
  C   3.39335162245710      0.42067473226473     -1.01407665252925
  H   1.76348945419067      0.25566742855650      2.48583314922725
  H   -0.03103859624214      3.87808528554619      2.74601956794182
  H   -0.75966407011972      1.80558310486369      0.59104179859509
  H   -1.38246088488700      5.75700684373355     -1.23006202238335
  H   -0.60055317966435      4.87295691888249     -2.53807946109053
  H   2.21806700850017      7.90247748211220     -1.81046899738383
  H   1.77584001594312      4.14432728447132     -1.46953762636410
  H   3.64926848443484      3.50340795074600     -0.99840093301814
  H   3.83530457897739     -0.43590403728912     -1.50028951176706
