28
Coordinates from ORCA-job 8241optt
  Br  1.99344170323959      0.10072022937790      2.31981517772535
  C   3.64086770900519     -0.23964143051698      1.43511024816083
  C   3.80735510649436     -1.43577824493083      0.74113322758411
  C   2.73000786815211     -2.47517867926727      0.53911608966315
  N   2.98665152576299     -3.34407972522317     -0.59064277642120
  C   4.31317358681383     -3.92239332228684     -0.53257692336448
  C   5.47938284277301     -2.90968723602146     -0.45849882221044
  N   6.15136839623595     -2.65767665182350     -1.73302936104602
  C   7.59743334637163     -2.80327996769889     -1.77535913867557
  C   8.01878239958926     -4.17585128048205     -1.48166071372497
  C   8.34878110550849     -5.29395791610404     -1.21138978961160
  C   5.47804219531713     -2.11499137326101     -2.76965141198204
  O   4.29190662655777     -1.86215864181003     -2.76741355078649
  C   5.07788917415395     -1.60676831283150      0.20462169373306
  N   6.03099954461704     -0.67660549151163      0.29177947102445
  C   5.72063972277079      0.43115902773505      0.94019763968335
  N   4.56021788437852      0.68946452519400      1.54017869415517
  H   1.77220690827462     -1.97595722495487      0.39442596595021
  H   2.63226936251513     -3.07764442238899      1.44936030027298
  H   2.90308335174937     -2.81078730663052     -1.44941780927259
  H   4.46947260607289     -4.57115717506767     -1.39384317231796
  H   4.35882715898513     -4.55050212609076      0.36155459493984
  H   6.25090363796607     -3.34345219089721      0.18167868601023
  H   8.05160119681465     -2.11778359297047     -1.05472658169560
  H   7.94536246452049     -2.51692348160460     -2.76847003873110
  H   8.64345220251179     -6.29007751160023     -0.98033373740645
  H   6.11585397668506     -1.92104374118460     -3.64589034047359
  H   6.48102639616315      1.20003326485220      1.01093237881736
