27
Coordinates from ORCA-job 8242optt
  Br  1.08393256632617      0.22917242507644     -0.19240709469551
  C   2.91953766691246      0.01034444630748      0.10161679106933
  C   3.58234681294630     -1.09797987141598     -0.24674180358701
  C   3.01025426419746     -2.31086604127201     -0.93363978340605
  N   3.87842686336776     -3.47447809507815     -0.92843832638899
  C   5.08662646157445     -3.36568177563099     -0.58413999103103
  C   6.00345311621054     -4.57554783265150     -0.55568144220576
  N   5.50273891237494     -5.74207065552082     -1.23326556321802
  C   5.51222821412006     -5.58633644298232     -2.68671372129232
  C   4.85563069259650     -6.71471487964542     -3.34126153475071
  C   4.29949730841519     -7.63097308223700     -3.87405926603117
  N   5.69564539143179     -2.18371673995105     -0.16085864040612
  C   4.98345067991112     -1.05008109550237      0.10318041470866
  N   5.58438621688673     -0.04480558609299      0.64177626104383
  C   4.86319421692460      1.09626857411719      0.91055772945531
  N   5.28794724649344      2.18751013042570      1.36061870828985
  O   3.47475501575776      1.06556523173043      0.67863877743483
  H   2.77214848240601     -2.07606511126485     -1.97652772289937
  H   2.06338970338437     -2.59125511000033     -0.46860238061075
  H   6.19196583999141     -4.81414384619215      0.49596325934294
  H   6.97015399972865     -4.29741019791941     -0.98828859791523
  H   4.55072741313745     -5.92219535668918     -0.93135714148019
  H   6.55392726353814     -5.54089565950179     -3.01609247017950
  H   5.01861984881768     -4.66179508725136     -3.01350308944421
  H   3.80911571293045     -8.44537536792944     -4.35102035482954
  H   6.66303653032209     -2.18572416968001      0.12878700067371
  H   6.28986355929638      2.11425119675197      1.51045998235304
