24
Coordinates from ORCA-job 8243optt
  Br  1.29675159306716     -1.24406137818944     -0.32032101386031
  C   2.81311135153688     -0.14353931362261     -0.35630417970459
  C   2.98082485982109      0.80010628438373     -1.39088344973769
  C   2.22145064138615      2.02218687148961     -1.27109091399421
  N   1.36338274933952      2.20674826225777     -0.33620205351476
  C   1.28020187059085      3.44079749569150      0.26527071449326
  C   2.31986002130185      4.07875525227043      0.84757457980387
  N   3.65719590925904      3.55624440511828      0.81586061225033
  C   4.04500831986735      2.86006450616127      2.01048773994298
  C   4.50804627943536      1.60530742027016      2.02188303101024
  C   4.46918461150468      0.82255757779236      0.77666883952649
  N   5.06128122412769      1.26594813509270     -0.32248701107295
  C   4.38485329648221      1.15938372158485     -1.60618188103724
  N   4.91207634411263      1.51946353538542     -2.69199068401848
  N   3.58523399339987     -0.16541165440052      0.70920728855614
  C   -0.03598507909730      4.01112567637646      0.45181338617593
  N   -1.07152938489041      4.48543695704951      0.58415746818764
  H   2.61218901667103      2.86343674578344     -1.85049058054096
  H   2.12587087831526      4.98800734472554      1.40771916960689
  H   4.31737838100263      4.29677259189268      0.60738611336612
  H   3.89143208638061      3.36654920821015      2.96178669645847
  H   4.68408829791708      1.09380550402145      2.95774390205152
  H   5.71556305368537      2.03152434573190     -0.22693773003821
  H   5.86752968478335      1.85479050492335     -2.57567004391048
