27
Coordinates from ORCA-job 8244optt
  Br  2.57890020909880     -1.10963179745734      1.47741460309263
  C   3.95967535596003     -0.38682471300770      0.43105680551544
  C   5.19893605707956     -0.08762482629851      0.88713558635892
  C   6.06302461294715      0.56756573283178     -0.10747097883732
  N   6.92327760491411      1.47900682853910      0.07187805991767
  C   5.85862960711030     -0.02052773898739     -1.44702926992287
  C   7.09191278244471     -0.37845517045425     -2.23112401453351
  N   7.92064553048696     -1.29573482571172     -1.45163780016446
  C   9.05669541782743     -0.76827555037718     -0.69840554816144
  C   9.18009748254002     -1.33918962264229      0.72757852906061
  C   8.19764932428419     -0.73981725524053      1.69855574933860
  N   8.34148484880645      0.24415992262644      2.46747553379623
  O   6.99466678059669     -1.37852989428375      1.62844025056775
  C   5.81440762533167     -0.74310956406062      2.05999464940944
  O   5.37184644707540     -0.91275800018085      3.14243281338037
  N   4.69165665765401     -0.38087872083600     -1.82834899167225
  N   3.68826528903527     -0.26641579556916     -0.89628558489882
  H   6.95838387713518      1.76778903761800      1.05057989324373
  H   7.67195502158175      0.52008216898897     -2.44398590972052
  H   6.79240807824979     -0.82955015828927     -3.17755532259376
  H   7.36131114109297     -1.93752195881061     -0.90735347142032
  H   9.00262136412342      0.32113221234039     -0.63698069545432
  H   9.98385372870210     -1.02316919400518     -1.22063973658334
  H   9.05036693151174     -2.42353290463533      0.70027844844760
  H   10.18639954915282     -1.13309030788005      1.09168549203747
  H   9.28173002313571      0.62305749098727      2.40160775110334
  H   2.79119865212168     -0.57315539520422     -1.23629684130688
