25
Coordinates from ORCA-job 8246optt
  Br  2.22595589740968      2.17728480626930     -1.34406008819412
  C   3.80786401336192      1.50998940598921     -0.49544843397189
  C   3.75062557531325      0.98286052158113      0.78630408407483
  C   4.92300858309104      0.03027168390347      0.97057317846451
  N   6.15048374094571      0.67941419248041      0.48937385708252
  C   6.03880370735670      1.60286746774444     -0.48133803978445
  C   6.93735800594162      2.73853898909222     -0.25988402523535
  N   6.28267623694866      3.85745094915455     -0.22198004753618
  C   6.22928776355690      4.47521476673232      0.99824911814872
  C   4.88186021345352      4.57939033135061      1.24901436456610
  N   4.36387656849909      3.74855675734094      2.22716718000136
  C   3.34913616655010      3.11925102853994      1.73917343286292
  C   3.08734575565358      1.65510323081709      1.94536826004602
  N   2.55410772324921      1.16848064160690      2.98168717995283
  N   4.92258558037098      1.68790196329402     -1.19599310814519
  C   5.16500451339806     -0.42568012229630      2.39478550552952
  O   6.17146282529254     -0.16880072144639      2.99166876374007
  H   4.74699235691837     -0.87966103218282      0.38149777822054
  H   6.85699301345394      0.80155181528140      1.20870248141901
  H   7.73951934958764      2.53834061895686      0.45642215679154
  H   6.93738456994353      4.22430698924127      1.78462287247428
  H   4.24250523862336      4.86737152907617      0.41543832856317
  H   2.82942963226908      3.52087602786271      0.86628432131986
  H   2.47413088959175      0.15404490747002      2.91074728420654
  H   4.37560207921968     -1.04892674785949      2.84162359540282
