29
Coordinates from ORCA-job 8250optt
  Br  1.00717497900280     -0.05212811145790     -0.51024988937767
  C   2.87621781859772     -0.02440628861758     -0.23523823450471
  C   3.59099693228991     -1.19444783300435     -0.12973709449729
  C   3.11658035291869     -2.61545064439885     -0.22188695389838
  N   4.27795100286835     -3.37570333184720      0.25514967280435
  C   5.49572475374136     -2.58013388263177      0.10707577300632
  C   6.28579186307426     -2.88721146510194     -1.16895080422377
  N   6.72570724137239     -4.26753334218361     -1.18006250505460
  C   6.91987352005260     -4.96429257093976     -2.34806661767081
  N   7.57097105995954     -6.03421590345162     -2.53591713030640
  C   4.97632633897043     -1.16789714691620      0.08269270904350
  C   5.68997121709675      0.00870032121454      0.18738085150929
  C   4.93856642164715      1.16836173607524      0.07057418639547
  C   3.55517853270533      1.19110156974604     -0.14221873276366
  C   3.19539838243209      2.58153339050226     -0.20692397298038
  C   4.34475965072709      3.26121678386354     -0.03275209434502
  O   5.41530529468788      2.43659861434911      0.13874409537785
  H   2.82738232029804     -2.84869724764699     -1.25561767932498
  H   2.24390891933499     -2.79784658805300      0.40839658535982
  H   4.36896220676476     -4.28552375795931     -0.17766666443199
  H   6.15699107175494     -2.74634651695341      0.96599323709326
  H   7.12524330055123     -2.18610266792393     -1.25016294381828
  H   5.63922451866640     -2.73006368721040     -2.03579928097531
  H   7.29322628120959     -4.55856024886904     -0.39572012323459
  H   6.40018554007805     -4.51501277888439     -3.19549396083176
  H   8.02114056922078     -6.36394009887590     -1.68106221863901
  H   6.75816360414315      0.03887737960083      0.35672136168648
  H   2.21529242630645      2.99863192045861     -0.36255812417926
  H   4.56578387952719      4.31449239711701     -0.00764344721847
