28
Coordinates from ORCA-job 8251optt
  Br  1.01599503942266     -0.18968827413950     -0.29017487478358
  C   2.89176910782321     -0.10810064875211     -0.01486812213462
  C   3.60684110868709     -1.19814340718523      0.34074876926440
  C   2.94140565281454     -2.52969576005529      0.65969685289014
  N   3.14580371929251     -3.64633868183251     -0.24772422874803
  C   4.45720608704270     -4.27453791573496     -0.27869871977036
  C   5.62167702644919     -3.31743173339727     -0.50858491169041
  N   5.75143889430985     -2.37342350705417      0.58941304590055
  C   6.47406990929320     -2.68098282605745      1.72657521870787
  N   7.14763225343659     -3.72244632544217      1.98634748933423
  C   5.06150963904055     -1.14312176079653      0.48378300320563
  C   5.75300151150335      0.00369134721769      0.52712263525560
  S   5.06372464048059      1.56932892721271      0.36263143138627
  C   3.43948673552844      1.24004981854660     -0.26169565708818
  N   2.75607612176410      2.15374269464370     -0.80984161949302
  C   3.23516499548919     -2.97203029958269      2.08563062578998
  O   3.67544775241802     -2.25878218673185      2.93881346975630
  H   1.86250201023633     -2.35723308880055      0.67994198077570
  H   2.80879324249957     -3.41937813707255     -1.17412089667219
  H   4.43946671591333     -5.04026314652629     -1.05520535109498
  H   4.61931402633866     -4.78820301394438      0.67434009239864
  H   5.47133920944298     -2.74937693595802     -1.42877473648375
  H   6.56015340589330     -3.86554919763674     -0.61969122114621
  H   6.40481110382259     -1.89333950977978      2.47492751175859
  H   7.13761636214296     -4.40874034408133      1.23498494106496
  H   6.82671063309828     -0.00312496966850      0.66332977179173
  H   3.27650086771935      3.02182468575813     -0.92032180678714
  H   2.94754222809682     -4.02070580314892      2.28941530661189
