26
Coordinates from ORCA-job 8253optt
  Br  3.33376852042695      0.05252468920387      3.59450772661261
  C   3.33946183624967     -0.01382238735257      1.71193122993832
  C   2.41078204501485     -0.69863614731512      1.01821497382014
  C   1.35154389987182     -1.47101199508706      1.68540798579411
  N   0.13420156258120     -1.26852867181671      1.40634795387746
  C   -0.71043834717468     -2.36324423708979      1.59369359488270
  C   -0.44756093075208     -3.44705372226139      0.84148642159332
  N   0.68832013417445     -3.43138537957057     -0.03069707824592
  C   0.62320326024358     -2.45145892178676     -1.12117465969454
  N   -0.29183571195271     -2.48075251439558     -1.99800723191849
  C   1.71129801970979     -1.47717620193891     -1.30321866696574
  C   2.47491882668593     -0.74730650066761     -0.45360818525632
  C   3.48201315410634      0.14902652056979     -1.01400760256200
  C   4.35531410217268      0.81698512443378     -0.25192548311777
  N   4.33384224712103      0.70839875674755      1.12397968402736
  C   -1.30169666853446     -4.58863921252273      0.82176310877920
  C   -1.98652682609241     -5.57443847941198      0.77720104480929
  H   1.66189017836134     -2.32455389977827      2.29813889273584
  H   -1.60808423478153     -2.27086763714540      2.18752256804771
  H   0.83586614692422     -4.34751296041927     -0.43499152252209
  H   -0.97200583851657     -3.21412231066331     -1.79461381089786
  H   1.84901618346960     -1.25291988477879     -2.35447332806147
  H   3.53552731503565      0.26116465750446     -2.08755629739623
  H   5.11728248784180      1.46721306711840     -0.65528931753161
  H   4.97616873228569      1.22686658224626      1.69712893698169
  H   -2.60027009447220     -6.44274833382223      0.74523906227028
