28
Coordinates from ORCA-job 8256optt
  Br  2.51460649220889      0.46458012631250     -3.09870870119686
  C   2.87421624639819      0.83982912422627     -1.24788581610440
  C   3.61691637993444      2.07292814441977     -1.01607261439012
  C   3.31817113787575      3.41053965654573     -1.71310017949707
  N   2.25221561901087      4.22704696598889     -1.17929479011938
  C   0.88398051060199      3.73237250851836     -1.28379225050282
  C   0.27937967485363      3.37852173631433      0.07302569686102
  N   1.06962854331437      2.32999438198729      0.66266931754425
  C   0.59869674617800      1.46803164460653      1.45375914327591
  N   1.38044025845517      0.37227516462295      1.81552857455833
  C   2.55410545442240      0.05526462122966      1.12326869425369
  N   3.56749024056212     -0.30125720534502      1.79313011723345
  C   4.59189278480046      2.07163926621866     -0.13027657549401
  O   5.47485892296001      2.12856392365871      0.60836684412862
  C   2.41881323521133     -0.03992573628821     -0.36161927813234
  C   -0.72534001355665      1.50091142915783      2.03382068477404
  C   -1.81711502093245      1.57911405712776      2.52026589329294
  H   3.09595818965038      3.18384619245762     -2.75695009227505
  H   4.23068711676484      4.00748178239090     -1.71109040835497
  H   2.46251102443612      4.50629960207430     -0.22970032679031
  H   0.86741833057193      2.84443752014201     -1.92202636580962
  H   0.25027446152163      4.48620181648387     -1.76034024797363
  H   0.32192259979708      4.26405506265191      0.71919824343826
  H   -0.77642687670914      3.10860342046312     -0.03489660817786
  H   1.37756929746671      0.09612429060428      2.78812063682007
  H   4.31181893404284     -0.62562783131717      1.17939649584156
  H   1.89884979989220     -0.92657269616492     -0.70486914164899
  H   -2.78754008973315      1.64472103091201      2.95307305444529
