26
Coordinates from ORCA-job 8260optt
  Br  3.50540140457679     -0.50892216598802      3.80429484395362
  C   5.09898603482338     -0.07589723125729      2.88152028390763
  C   6.10507767832645      0.65767550662876      3.50163333917315
  C   7.07532552974838      1.16415533825547      2.48471800620937
  N   7.65530359860623     -0.03757741175619      1.83223439519093
  C   6.83810497643763     -1.06976088493634      1.61464652346884
  C   7.36353913375359     -2.39249668004687      2.04200367367352
  N   8.51972413471906     -2.38796761354081      2.57416153522884
  C   8.71148982390882     -3.15976880892421      3.75678158586154
  N   8.39473385997468     -4.36178067114642      3.89552229011732
  N   9.22048134890462     -2.27053103095311      4.76467881796221
  C   8.21468797188274     -1.61012973680064      5.56777836601171
  N   7.67860012572399     -2.25671122483094      6.50805872439972
  C   7.85258043057390     -0.28886441045703      4.98497018947446
  C   6.56453881404242      0.01495611264618      4.72849153279540
  C   5.45586178916575     -0.85965005178791      1.74746439979956
  Br  4.29291569018769     -2.06219528433071      0.89539832746550
  H   6.56682017530969      1.75999244732910      1.72816400128834
  H   7.89310478508761      1.74164293265683      2.90772486695070
  H   8.56119340130794     -0.35272666083789      2.17049121005054
  H   6.63640366209555     -3.19352643575548      2.18003253114671
  H   8.58920343682884     -4.66719317436078      4.84794336673583
  H   9.78074386841594     -1.57430795415092      4.28850852397359
  H   6.96412495818583     -1.69797694071456      6.97174173457726
  H   8.63896810091222      0.19967513026656      4.42014634714006
  H   5.80508526650017     -0.54011309520676      5.26889058344361
