29
Coordinates from ORCA-job 8263optt
  Br  1.08229143115647     -0.20870902502800     -0.28072000978187
  C   2.97887976567789     -0.17138448258301     -0.07620123664625
  C   3.62883924010024      1.06251986093972     -0.00177048006097
  C   2.88726438631467      2.38178019901244     -0.07350085900566
  N   3.68255105651069      3.54578051148887      0.26731747118401
  C   5.00607234849947      3.50880656927829     -0.32528790662236
  C   5.83382382456595      2.32052623041914      0.16881033966142
  N   6.28165571017566      2.53003892693821      1.54438228617390
  C   7.32944492439875      3.34437333493080      1.81706042916741
  O   7.89789272568205      4.01685023184919      0.98979588113456
  C   5.02451426483449      1.05077267917735      0.11016924929220
  C   5.63149798629995     -0.19179199642494      0.15921261617037
  O   6.95780687222920     -0.41927432411778      0.27995617715227
  C   7.17374160759406     -1.83395804417032      0.05060216155008
  C   5.80743015796793     -2.52841261037644      0.19552434370625
  C   4.87763904479207     -1.35077825863463      0.08701370402723
  N   3.56348083088177     -1.35285252211464     -0.02727063406888
  H   2.01227682914071      2.34537224816600      0.57501166677168
  H   2.50162367106941      2.50134339264087     -1.09250192343523
  H   3.75435348044939      3.65242381024453      1.27244117972969
  H   5.54179164247307      4.43081786871567     -0.10570233180439
  H   4.89450914178286      3.43595806541756     -1.41063219960256
  H   6.72812094417227      2.21051400159363     -0.45046218793976
  H   5.94256256828006      1.92218720115621      2.27192688136135
  H   7.61121681347075      3.34263133000163      2.88214907062846
  H   7.91658277958540     -2.16931981893155      0.76895473185494
  H   7.57324727083879     -1.94294007946581     -0.95844135214215
  H   5.69251038833061     -3.01630821999440      1.16526701653371
  H   5.63437829272525     -3.27196708012861     -0.58010408498945
