26
Coordinates from ORCA-job 8264optt
  Br  1.11070300221006      0.02797432583506     -0.19282416245359
  C   2.98920960262051     -0.06174652930922     -0.11694231575285
  C   3.62948240615712     -1.28047203487215     -0.09935529204609
  C   3.29748117645924     -2.65668261983373     -0.11089370033078
  N   4.39589593142216     -3.39782258405203     -0.07642741588812
  C   5.49203749688913     -2.58143809833738     -0.04291764599243
  C   6.88504021976941     -3.11660282806696     -0.04699251482669
  N   7.59803289817858     -2.99799129779900      1.22877603800873
  C   8.18791073206797     -1.86809040838425      1.62361503070080
  O   8.20823459865410     -0.82432206589653      0.98255840180369
  C   5.07561435663244     -1.26852949916562     -0.05144076137802
  N   5.74557607067804     -0.08437873246930     -0.00116814589788
  C   5.10125428762937      1.08292673970391     -0.00421031991586
  C   5.94969989187370      2.32731454510014      0.07455620936239
  C   6.38877218057772      2.77941048661266     -1.24771034134077
  N   6.73124635048152      3.13422105896653     -2.28091832372228
  C   3.71881821361534      1.13005139850906     -0.07301137773564
  H   2.31055421682231     -3.09054659390032     -0.15016343663671
  H   7.49745069341376     -2.60348796180611     -0.79080108388667
  H   6.84542838845759     -4.17261694982482     -0.30562071657902
  H   7.57649073361835     -3.77071044900101      1.87381332829793
  H   8.68490956480150     -1.94633619822121      2.60010520275956
  H   6.76155857244769     -0.13775655537713      0.14564445979931
  H   6.83511542943072      2.13881526972894      0.68579069934311
  H   5.38471986125464      3.13119422942048      0.54546269339204
  H   3.21676312383695      2.08562335244001     -0.08392450908416
