23
Coordinates from ORCA-job 8265optt
  Br  2.18591587501734     -1.09221709051911      2.50839760258624
  C   2.84649996496214     -0.23421217974325      0.97448900102597
  C   2.67583643151858      1.09284490287156      0.76490767383777
  C   2.17035615286995      1.98464171501884      1.81819158591979
  N   1.58885334435149      3.11594362811511      1.75373752713704
  C   1.25905727462667      3.87454817361728      0.66665824729177
  C   1.85088238522686      3.83887195787397     -0.55854380373018
  N   1.56143996765736      4.79656540124649     -1.54651572463704
  C   0.62466218947175      5.79489007995039     -1.52827798311083
  O   -0.13535803421304      6.03746470583831     -0.62897997028917
  C   2.83097884574337      2.88245028424153     -0.99399730697273
  C   3.16545657714958      1.69130711278613     -0.46002152797244
  O   4.07217461426242      0.99567169911774     -1.21674678616566
  C   4.28952356593301     -0.33537183440578     -1.09148352133949
  O   5.02989840074491     -0.87578153011576     -1.84843015938618
  C   3.57530615623231     -1.06584348253985      0.02752914178916
  N   3.68053918005599     -2.32158518502311      0.12803193509993
  H   2.34475677890275      1.60199827734736      2.82087098099990
  H   0.52464932685472      4.63924880980909      0.86234052595201
  H   2.08780877897756      4.72197238525228     -2.40234864210771
  H   0.64308824844349      6.37455916605106     -2.46418967346193
  H   3.32274952813728      3.08506978552672     -1.93970993404121
  H   4.27192444707347     -2.67703678231704     -0.62690918842499
