23
Coordinates from ORCA-job 8269optt
  Br  1.30969297788048      0.11892817097786      0.05989074528146
  C   3.17685285831856     -0.07890039489773      0.04269580102225
  C   3.80873737181011     -1.30333458449589      0.05520291281673
  C   3.12372462675711     -2.55633268561003      0.04887661939479
  N   3.72114732342633     -3.69978580321819      0.04930729733379
  C   5.09493872406574     -3.71251581040956      0.08503149368997
  C   5.86671176339778     -2.59429272248078      0.09592073733776
  N   7.27051126894217     -2.63084770290869      0.17512693158884
  C   8.07439321136229     -3.67832127611336     -0.14196930086149
  O   7.73845800153318     -4.75414447475278     -0.55692555411741
  C   9.50446883385712     -3.35053755174114      0.08068267660279
  N   10.60694040610314     -3.09397792473282      0.25272090164812
  C   5.25276050557953     -1.28450296207330      0.04713313789400
  C   5.94511984791059     -0.10551907187867     -0.00653955538588
  C   5.27534067548519      1.16719714182803     -0.02561676399780
  N   5.72439987448904      2.35898959000914     -0.07621556268693
  N   3.86442082856356      1.05836047579334      0.01919598510739
  H   2.03864742985671     -2.56098248974294      0.03994680052658
  H   5.55205530175342     -4.68981943146784      0.10655463186136
  H   7.72896410881182     -1.81244502053845      0.54593977050248
  H   7.02297760114364     -0.06752836833948     -0.07282750390817
  H   6.73856594611896      2.37236865309201     -0.10173782225069
  H   3.38117051283346      1.94894424370131      0.00960562060004
