26
Coordinates from ORCA-job 8274optt
  Br  1.09130939106854      0.14798780282796     -0.08045362304286
  C   2.98501859068396     -0.01876008068461     -0.02637974128622
  C   3.58133496089792     -1.22024324210580      0.33424651053945
  C   2.87218560242416     -2.45626654609164      0.80621870658292
  N   3.01054658314460     -3.57344171133021     -0.13256798270291
  C   4.26337221970560     -3.64694225563312     -0.86112563254703
  C   5.41665226953953     -3.46363853744949      0.10875354048361
  N   6.13736981160287     -4.55880882292197      0.56560854503633
  C   6.22141971318680     -5.83370497171596      0.05207850975128
  O   5.64216252570087     -6.25466110694586     -0.91221104075699
  N   5.72760073244451     -2.33846531157476      0.61814995048518
  C   4.98745725240654     -1.20542947308174      0.28600102810778
  N   5.68362142374709     -0.11831564922296     -0.03185661076910
  C   4.98068242973674      0.95923184311423     -0.33554718502740
  N   3.65556833474439      1.06355052130429     -0.35689911919799
  C   2.30858240680289     -4.72546279305814      0.19590722077916
  N   2.50746579473743     -5.93296629981399     -0.11681719360032
  H   1.81405788283643     -2.25453718489767      0.95332061653651
  H   3.30473429257376     -2.72500673515677      1.78009728504426
  H   4.30899411727025     -2.83061913845662     -1.58316285219551
  H   4.33041841137100     -4.58179170377445     -1.40124661138250
  H   6.77615465106688     -4.33097136081390      1.31670166335581
  H   6.90988580970103     -6.45280531550099      0.64528693021423
  H   5.53839569326006      1.85084302620667     -0.59765683591493
  H   1.43639448477164     -4.48866876991957      0.80790758452244
  H   3.35061461457445     -6.09310618330288     -0.66535366301523
