30
Coordinates from ORCA-job 8275optt
  Br  1.78185045232389     -1.91984155157370     -1.16312816383732
  C   2.68318230922822     -0.39853400578858     -0.51781247294479
  C   2.58913245003409      0.77335674432406     -1.15819780630425
  C   1.62804946364187      1.15390490893874     -2.26441520665154
  N   0.35605610198469      1.67478169518403     -1.72087563795753
  C   0.66514110261928      2.56695583881399     -0.61499643041654
  C   -0.41375243262035      3.43602007548666     -0.00339145057294
  N   0.10992161122600      4.05784541423175      1.24157005485894
  C   1.36161412562914      3.76284173193289      1.79970074018974
  O   1.48306447894372      3.32531403481350      2.92469417728397
  N   2.46118981461729      4.06905276564702      1.02631943345422
  C   3.70203197995146      3.32295267594998      1.16920430714599
  C   3.58701415113770      1.91278353984545      0.64213472809575
  O   3.25758722308777      1.87197025919530     -0.67916005825350
  C   3.67840174694374      0.79512674784831      1.36344417782593
  C   3.40459776827361     -0.51665909295267      0.76404290786824
  N   3.63728195522502     -1.65242042553543      1.28626415543103
  H   1.42227521726267      0.30220581539250     -2.90553317405485
  H   2.09209466824735      1.94059172474482     -2.86171311450835
  H   -0.20384588115580      0.89175585538441     -1.39652957696307
  H   1.43704535977749      3.22212353451057     -1.00336549800871
  H   1.09735391836249      2.00462558158758      0.22055232923927
  H   -1.28162783082235      2.82939334551633      0.26427679826798
  H   -0.74728127192631      4.20286927994062     -0.70354450502270
  H   -0.56493379945721      4.01309889570088      1.99137398593084
  H   2.29154990850490      4.52026053260009      0.14516444490929
  H   3.97021236653847      3.28085822502682      2.22279311064796
  H   4.48316859062326      3.86216233090849      0.63253906225921
  H   3.90800051278983      0.85623422215552      2.41892925619238
  H   4.10262393900805     -1.54663069982996      2.18665942589532
