22
Coordinates from ORCA-job 8276optt
  Br  1.69115692909170      1.00970781204366     -3.37507546439167
  C   2.66332818058853      0.75982392370348     -1.79230887535792
  C   3.72277288315655      1.59712828590154     -1.48185907233019
  C   3.33623601933259      2.98912460124036     -1.12420375441568
  N   2.19669569976066      2.99822607552880     -0.55444785802799
  C   1.62002906670563      4.03814889021732      0.13361336257827
  C   0.41081026433735      3.84404656557522      0.68254025338040
  N   -0.36612383994465      2.68493868069792      0.57846344441725
  C   -0.08899098249263      1.33414434863121      0.68472347537058
  O   -0.80386783646589      0.51084888324677      0.17525149058050
  N   0.83927850242259      0.94639460243166      1.67656293849981
  C   1.86753067420460      0.23310468089215      1.56403587848703
  C   2.63700111022338      0.03071064092097      0.29813984659749
  O   3.92200705838083      0.25820559325763      0.48978691432013
  C   4.63734575682910      1.06495065946302     -0.47973922355743
  O   5.78606410876636      1.24825901271850     -0.27565574999219
  N   2.10230718413753     -0.03684752371570     -0.87204656593561
  H   4.03994578756455      3.82263726730053     -1.14564245329279
  H   2.12474011576017      4.99353270397665      0.25593650802158
  H   -0.07980295999731      4.66975742222090      1.18444871302506
  H   -1.29329495125409      2.81757375663775      0.19779777828756
  H   2.37083122889240     -0.09741688289040      2.47067841373581
