21
Coordinates from ORCA-job 8277optt
  Br  2.75680179648110     -0.05096748785234     -3.16045927669302
  C   3.00864341522796      0.42818322717172     -1.35836638442654
  C   3.77626006346393      1.53394265149321     -1.08973018633410
  C   3.41671511692017      2.88496203587718     -1.58869919197137
  N   2.19252461478249      2.97213991201056     -1.93993838693242
  C   1.32375075835779      3.75977310249682     -1.20328342650632
  C   0.39836178101024      2.95712330658055     -0.62356333611260
  N   -0.19007199145937      3.21267584912587      0.58492679317432
  C   -0.37768081187401      2.26088977094784      1.41529249477316
  S   0.10902498846216      0.51544824149850      1.38218088809690
  C   1.75281416455913      0.54527404360527      0.71427894598009
  S   2.90576549698971      1.51499625253346      1.53545014696074
  C   4.22518474230909      1.74397159327873      0.30144220318518
  O   5.25633279013969      2.22147185123666      0.66455989156476
  C   2.03210138459946     -0.09029359427144     -0.45876427093094
  C   -1.09226803833107      2.55290417056677      2.63469263119850
  N   -1.68479632524310      2.73981426365991      3.59859096735462
  H   3.98963868563520      3.70743428509718     -1.14908716660643
  H   1.55461841660493      4.76643740984443     -0.86051054121586
  H   0.28928553827632      1.96244130637208     -1.04389704060632
  H   1.29699341308815     -0.76862219127300     -0.87311575395236
