26
Coordinates from ORCA-job 8278optt
  Br  1.17119125523733      1.90197128044549     -0.61212057316832
  C   2.75683118437105      0.87741367688969     -0.33871096259909
  C   2.76549851983539     -0.49262681906055     -0.57301211644840
  C   1.56741257765204     -1.30792839847645     -1.00440537736042
  N   1.16886042540267     -2.29403409500578      0.00157324257319
  C   1.89306609365515     -3.56283304289873      0.00087246292497
  C   3.33126212035422     -3.31400876339133      0.39842307242685
  N   3.88825425950976     -3.58031408085085      1.49310393015150
  N   4.07960300445233     -2.58516959156945     -0.58279021486308
  C   3.97873775640999     -1.17659051779298     -0.35471438680259
  C   5.04612243990779     -0.46572978606762      0.12149128125732
  N   6.33318840744298     -0.78755152249591      0.47662302920394
  C   7.01331923207102      0.34188009017152      0.91530351647454
  O   8.14134435896023      0.41278740405611      1.32466944559126
  N   6.09744581444700      1.38469893450325      0.77597552395481
  C   4.89050621953523      0.91546773521915      0.31318758607232
  N   3.79436036581632      1.59238931726009      0.08606600116133
  H   0.72632582948317     -0.64027550985502     -1.16396893687219
  H   1.78365654196128     -1.78359206322288     -1.97532113294461
  H   0.17745228199497     -2.47442258353488     -0.07555986821570
  H   1.41873407127297     -4.23353083461487      0.71628410445282
  H   1.88356834278983     -4.05429262359022     -0.98713192785040
  H   3.23654398443107     -4.03007871990627      2.13387669492199
  H   3.71970879754757     -2.79089722151017     -1.50929936772080
  H   6.70823938267771     -1.71941673668276      0.54558787059880
  H   6.31176673278090      2.33368447198141      1.03199710307998
