24
Coordinates from ORCA-job 8283optt
  Br  1.22512856094488     -0.42320576920312     -0.12392685005172
  C   3.07312682989624     -0.13298465776131     -0.12915194963819
  C   3.67045537115601      1.08325834157265     -0.00006099431706
  C   2.91719755536632      2.37512029912471      0.19576269633437
  N   3.11269472983487      3.29165243193529     -0.92480532946469
  C   4.31363211943901      4.11398423735511     -0.84444667862044
  C   5.53628676654294      3.24439106482832     -0.96986571145895
  N   6.41293353972159      3.20752442859190     -1.85681827878833
  O   5.66861207420594      2.38112675758139      0.11749423251424
  C   5.09631109871927      1.14963062183178     -0.04053812403782
  C   5.87799064182452      0.03981918068282     -0.17951212663903
  Br  7.73887319528747      0.11376635131440     -0.21981754290168
  C   5.23168359986508     -1.21220594069685     -0.29079318359929
  N   5.69453107108031     -2.44207456787440     -0.43537143520601
  C   4.56913203583902     -3.17673672531582     -0.49792790625099
  N   3.42927557614676     -2.51482064217951     -0.40418287307586
  N   3.85257537481082     -1.24411919994817     -0.26992000350901
  H   3.24672137617210      2.81967116283865      1.14535781534008
  H   1.85615675354480      2.15885988405387      0.27820877598483
  H   2.30226290359255      3.88626913785705     -1.02831870040017
  H   4.39166099350296      4.65857345319146      0.10866927552292
  H   4.30023099482489      4.83423332734219     -1.66060625341474
  H   6.22331692422804      3.89176780494922     -2.58633652651230
  H   4.57320991345356     -4.24850098207163     -0.61709232781016
