24
Coordinates from ORCA-job 8284optt
  Br  1.09818878617248     -0.00037206095640     -0.05356022907888
  C   2.98541340969521     -0.10536802301742     -0.01233843260183
  C   3.64636936651379     -1.29524634550245      0.24102420311589
  C   2.98119744341174     -2.61571413256489      0.55721084737819
  N   3.30244195540481     -3.66868279637767     -0.38839401238941
  C   4.58709022310566     -4.33978707649021     -0.28770442266448
  C   5.70197858346443     -3.35372091237500     -0.52969588116747
  N   6.53355960861145     -3.29595268397548     -1.45596484079712
  O   5.74962688369304     -2.37747903552170      0.46838214540229
  C   5.05234600611935     -1.23041086843948      0.21692228600393
  N   5.75777747996618     -0.14654678669116      0.02061679350340
  C   5.08219933411508      0.98163991303544     -0.20069084550506
  C   3.70139245927126      1.06342750843984     -0.24134108451645
  C   5.86272558686334      2.17765784826626     -0.41970143457969
  N   6.44675046310893      3.14674692408174     -0.59873706146340
  C   2.55030788689135     -3.84090304395488     -1.51396608448345
  O   2.83106250280025     -4.58196376343784     -2.42197345257623
  H   1.90122842898834     -2.49156804821714      0.58479620004965
  H   3.30495014454683     -2.94201327474020      1.54839021834570
  H   4.60713565939112     -5.13380331025027     -1.02918980770258
  H   4.69669433756008     -4.76247836492215      0.71382663728252
  H   6.40399469556169     -4.06395316651121     -2.11286097662153
  H   3.20574356714321      2.00224085864390     -0.43814589134358
  H   1.62982518760033     -3.23374935852160     -1.49990487359040
