25
Coordinates from ORCA-job 8288optt
  Br  1.34699310030535      0.79022708435714     -2.97544700090849
  C   2.25274798107493      0.91004551250344     -1.33111668184135
  C   3.33373220347800      1.78115816580214     -1.12929119106880
  C   4.17996781085277      1.42744479311102     -0.06130939251863
  N   3.80624313786777      0.60835687031351      0.90740150695819
  C   2.52067568141105      0.24487987051900      0.94942330527152
  C   2.07085500226103     -0.29765202946797      2.25744992813513
  O   0.92941802892634     -0.43323812104919      2.60467200113139
  C   1.68348366373889      0.43051233219714     -0.15842146257714
  O   0.32274933250563      0.33355481275377     -0.08657062710360
  C   -0.31422214497127      1.57455667401383     -0.18564771324477
  N   -1.26537769133070      1.64032449698861     -0.99911211369195
  C   0.05649814950745      2.65920534946955      0.79008878886119
  C   0.57025058148532      3.89599174240304      0.65321510391529
  N   1.25765197169264      4.52644681929613     -0.41189560479040
  C   1.86976255735167      3.57941721203687     -1.22816821609368
  C   3.16328983969071      3.23506846183731     -1.35817656520387
  H   5.13250390672980      1.93375230849100      0.05807529219120
  H   2.92240015007339     -0.54359165887455      2.91734266670471
  H   -1.72124283793491      2.54803349561351     -0.93329998419774
  H   -0.32681688132557      2.44424694229872      1.78207137255795
  H   0.51271220550256      4.53898762145682      1.52332406525656
  H   1.83836677249898      5.28892961563563     -0.09155286231784
  H   1.12381460119576      2.87664055979813     -1.55586416583633
  H   3.97054287741239      3.87970106849535     -1.03119044958857
