28
Coordinates from ORCA-job 8289optt
  Br  1.17454695019464     -0.30470474547443     -0.33051451435549
  C   3.05169205814705     -0.17950025772245     -0.05883216823281
  C   3.67514679768793      1.06268686908244     -0.08741356584201
  C   2.90823135571250      2.35015676132378     -0.30585790944490
  N   3.62193556880150      3.55030220340920      0.09413503066911
  C   4.97257775761520      3.58819726203742     -0.43512864393686
  C   5.80413687510773      2.39171653268485     -0.02051801075834
  O   6.99002316880634      2.48123561230838      0.19907604682754
  C   5.07350366313565      1.09526646080483      0.08502517538808
  C   5.77915312568628     -0.08166444587677      0.28949744405055
  C   7.24828008298184     -0.33544653531540      0.50061198811443
  C   7.33119035237036     -1.87432869477605      0.35474867625502
  N   5.98006771584551     -2.35559197558199      0.61599375699278
  C   5.10804671526451     -1.30006270259544      0.34066336809817
  C   3.73711719250548     -1.36684476788298      0.16115223770411
  C   7.79584518572879     -2.25961894757993     -1.03762280144684
  O   7.17050079948655     -2.97321056655911     -1.76915509820397
  H   1.96355597753665      2.31376941486125      0.23496620700741
  H   2.65172951733640      2.43898990421915     -1.36814172871280
  H   3.64534151559618      3.61751022895038      1.10540729541369
  H   5.48907212592056      4.49392832140304     -0.12050470748410
  H   4.91850354145550      3.59893927847475     -1.53002626376859
  H   7.55699707243178     -0.01172379492428      1.49548334574582
  H   7.88413218407133      0.19282243634755     -0.20925439814226
  H   8.05280662736200     -2.29848716583734      1.05912869753221
  H   5.76360923092579     -3.22078534419266      0.13616470506259
  H   3.20718319776422     -2.30925329462465      0.18759990883645
  H   8.77407364452163     -1.84029804696355     -1.34368407336896
