25
Coordinates from ORCA-job 8294optt
  Br  1.05996289265077      0.04405518269586     -0.43789789194451
  C   2.92630434620526      0.05388339927303     -0.26287996926267
  C   3.63260388741922     -1.11330595146436     -0.11609982796374
  C   3.15530018656067     -2.52951534439512     -0.04779394084801
  N   4.34634892004366     -3.25732690726409      0.41131452850534
  C   5.54275860167278     -2.48164108803259      0.10501249472755
  C   6.19814487935645     -2.89573876649550     -1.21319954025380
  O   5.77893815635759     -3.80398331016619     -1.87314283128748
  C   5.02238117265452     -1.07234450691790     -0.00599687591237
  C   5.64947900685378      0.15610427370552     -0.03297523334391
  C   7.12011729086522      0.31895663197466      0.11057923439202
  O   7.88504892491913     -0.60557496677559      0.18154523186944
  N   4.95883653636111      1.29995009610153     -0.15715596236138
  C   3.65749776038151      1.25912168600643     -0.27328912521441
  O   2.94005639790684      2.39965559002221     -0.40140602407371
  C   3.56863759618997      3.62535565944556     -0.44253989778872
  N   2.92962235639531      4.69162936826816     -0.54989790188053
  H   2.80016896209891     -2.84298165390803     -1.03777702261805
  H   2.32604180116216     -2.64074298975926      0.65353974513486
  H   4.40693513358112     -4.16788797159681     -0.02892621582076
  H   6.30630327834165     -2.56959000643058      0.88421248706977
  H   7.08315720678154     -2.31233528464124     -1.51542058911515
  H   7.45724296081248      1.36835392285695      0.15264167549645
  H   4.64824676879096      3.57988591466417     -0.37592775998406
  H   1.92386497563733      4.52501702283317     -0.59751878752216
