22
Coordinates from ORCA-job 8295optt
  Br  1.28913882959960      0.20352760463926      0.10728553653048
  C   3.13948672296587     -0.05569691597628      0.06090471922630
  C   3.74221821441424     -1.27743763770649      0.06700438954597
  C   3.29446666785991     -2.61830709161758      0.05382292338208
  N   4.31594922300306     -3.43551153348376     -0.04407038830150
  C   5.47470735345771     -2.70127956262899     -0.09456684304283
  C   6.75890191847633     -3.40553002019288     -0.29688379962797
  O   6.86022868680704     -4.60347778721602     -0.26715147282380
  C   5.19356878910060     -1.33815129547835     -0.01455389870715
  C   5.87251321112116     -0.08438447669272      0.01442985802734
  N   5.23771125420436      1.06036536701469      0.00766962085431
  N   3.89863951364523      1.04257570958255      0.00663101148548
  C   7.33373523304122      0.08965464447442      0.09088235515490
  N   8.08745647100080     -0.80800327768264      0.66098881599487
  O   9.35735691417480     -0.32101223738375      0.61249831260480
  C   9.35013375060420      0.87602773342947      0.01710667262065
  C   8.09499560313207      1.21258682514006     -0.34122308786147
  H   2.27262020721835     -2.96611495999379      0.09553839219306
  H   7.62849516178351     -2.76908050341102     -0.50480631153580
  H   3.46995116923085      1.95671145079133     -0.00011726155069
  H   10.30742376609567      1.35992203110977     -0.08003463990101
  H   7.74230133906333      2.10161593328275     -0.83035490426800
