26
Coordinates from ORCA-job 8296optt
  Br  0.96538770205044      0.05326423076655      0.12367884631095
  C   2.84626923045630     -0.02263755848526      0.03937504126201
  C   3.52563054196484     -1.23226572859487     -0.07197247025745
  C   2.81014199059470     -2.55546196883535     -0.09666082356566
  N   3.72401977211624     -3.61897811289964      0.26937730545599
  C   4.87183108407661     -3.68664584208738     -0.61505645232196
  C   5.69839155383889     -2.42343967475063     -0.47538088831567
  O   6.88503635357208     -2.41638933754718     -0.65083090567847
  C   4.91770077526044     -1.16965032228411     -0.18152944429346
  N   5.61403655631562     -0.03693825030956     -0.10267982379723
  C   4.96394491593670      1.09572108202884      0.06072033543048
  C   3.56524855330868      1.15955955070879      0.09095544551946
  O   2.93303998009484      2.34689598221660      0.22240683932380
  C   3.51402523017215      3.42624122416859     -0.49808930748151
  C   5.01410287299736      3.57598415620112     -0.29982736726501
  O   5.56520846793038      4.59717945923027     -0.60119540907743
  C   5.73397744707010      2.36984011516210      0.26043935192224
  H   2.36557144969832     -2.68901657861098     -1.09830228372447
  H   1.98625081277915     -2.53149133935218      0.61614336094167
  H   3.24053041016346     -4.50602263484919      0.30718155880178
  H   4.59698198952932     -3.77728784679741     -1.68047234292161
  H   5.50530310013975     -4.53258510070262     -0.35638373632187
  H   3.01340946687422      4.33364558432397     -0.17040384674454
  H   3.33541147921976      3.29189311999667     -1.57074502696609
  H   5.84625498201518      2.54990318133666      1.33688406867797
  H   6.73429328182440      2.29668260996622     -0.16163202491392
