27
Coordinates from ORCA-job 8301optt
  Br  1.26524574736709     -0.13368783712601     -0.50080448702662
  C   3.10931702663224      0.21479385481326     -0.25061323552343
  C   3.56842373798570      1.51066551475042      0.04282340272668
  C   4.96514492364614      1.72815566019009      0.12101868725313
  N   5.58344890400352      2.91471115474587      0.40061141505809
  C   5.14563475885104      4.22366858074138     -0.04489661269054
  C   3.77767463324668      4.60852838001615      0.45792642834944
  O   2.77174152514710      3.80746254163508     -0.15122221125548
  C   2.57968643589076      2.57501347414303      0.40508197547272
  O   1.64494838868492      2.37668929236968      1.11546014229296
  C   5.79845013278930      0.59779038344417     -0.02876718350589
  C   7.26412366571516      0.56550617954296      0.01185888103790
  O   8.00961969047837      1.50127921308985      0.21462164072131
  C   7.70731965599341     -0.86729631200870     -0.25389547373733
  C   6.41658647180867     -1.68065144757409     -0.43083489985953
  C   5.30560785601070     -0.66795425777122     -0.29269788665587
  C   3.94634613819339     -0.87651505845235     -0.43085054653069
  H   6.59224765123757      2.81005391731762      0.42982924531066
  H   5.13812522746538      4.28503801144265     -1.13912453859386
  H   5.87362584870600      4.94456989782990      0.32790323197520
  H   3.55332255362207      5.63400433227699      0.17059480226410
  H   3.71379979031883      4.52435482237312      1.54618431256131
  H   8.34198960334961     -0.87457387325198     -1.14054634788021
  H   8.32100355128434     -1.20438687166669      0.58154687121112
  H   6.31245089613402     -2.45873811622349      0.32660727441939
  H   6.36430919587783     -2.17380138113330     -1.40204641240707
  H   3.53480598956007     -1.84568005551440     -0.67276847498748
