24
Coordinates from ORCA-job 8307optt
  Br  1.01697846875691      0.16619630261902      0.27709221660782
  C   2.87264107748144      0.02556802194573      0.10402592206219
  C   3.52515701015285     -1.15659431945320      0.23895240284532
  C   3.24355245997593     -2.53818403018801      0.50758735903999
  N   4.34946801382969     -3.22585583500762      0.54454057473707
  C   5.43510664406828     -2.37866304668128      0.31214127663113
  C   6.82758244562498     -2.84701733206901      0.32115954417813
  O   7.75220637917026     -2.08212971184010      0.18067697559557
  C   7.00583932337344     -4.33841336272711      0.51073770164895
  C   6.52809745678808     -5.16276600912262     -0.72367993846157
  N   7.54286960009573     -6.20425324377399     -0.91734699250416
  C   8.52080433223618     -5.88941927100382     -0.17190266628993
  N   8.39568328523844     -4.74117655345984      0.57569119951728
  C   4.96186166540538     -1.11545062842754      0.11623179288111
  O   5.58419505974759      0.05052049884475     -0.14917163955262
  C   4.81980161824039      1.12614948993761     -0.27341966097041
  N   3.54046107597735      1.18047319502429     -0.16234613454538
  H   2.27166371559222     -2.98289170366083      0.66152594125438
  H   6.44007725988945     -4.64004747853136      1.39928990220690
  H   6.49086518140553     -4.53480587481992     -1.61962887646146
  H   5.53870392294060     -5.58610502125665     -0.57057031415354
  H   9.44421100082126     -6.45574024472564     -0.12712565866651
  H   8.94981738143050     -4.58377901462967      1.39962293415635
  H   5.40035562175749      2.01238517300683     -0.49208386175660
