25
Coordinates from ORCA-job 8314optt
  Br  1.09601784785838      0.06271009075890     -0.47608978986185
  C   2.96872770297580     -0.00873177716162     -0.24145114827352
  C   3.62783841473132     -1.21377614762262     -0.17300541999896
  C   3.08240709685173     -2.60789396195577     -0.25750180375134
  N   4.21250193383058     -3.43378608537192      0.19524907828647
  C   5.45329895944919     -2.70122469040767      0.02745688031940
  C   6.18131798162343     -3.06455749611622     -1.27216893546364
  O   5.72520501936017     -3.83649765845260     -2.07306245432555
  C   7.48472719505037     -2.43594657365953     -1.46014271606853
  C   8.56146682619991     -1.92122848870527     -1.56702495096224
  C   5.01767400550016     -1.25292617111348      0.00628401767370
  C   5.79051196753361     -0.11505873156554      0.11959977153112
  C   5.09106123034405      1.07968309699926      0.04254952224467
  C   3.70662500881536      1.17080497784484     -0.13873013353268
  C   3.40888081993534      2.57651016638568     -0.16535614567508
  C   4.59155541314541      3.19913704612074     -0.00207313473272
  O   5.62650201588521      2.32380219907802      0.12755562526632
  H   2.77275417056090     -2.83165511217427     -1.28568690857794
  H   2.21582091844220     -2.74691871946280      0.39127904463597
  H   4.24903425801238     -4.31419237196585     -0.30311066666050
  H   6.15870273996539     -2.89393347389185      0.84453204407498
  H   9.52019354843644     -1.47137048172580     -1.68044212871263
  H   6.86186169734848     -0.14319328958988      0.26043247819943
  H   2.44528815085566      3.03952952041172     -0.29082901317496
  H   4.86002507728845      4.24071413334356      0.04073688754008
