29
Coordinates from ORCA-job 8315optt
  Br  1.16336813437597      0.39349011888002     -0.27795512907854
  C   3.02064421107893      0.05894669957192     -0.23010142493782
  C   3.57326330135620     -1.16474613186060     -0.44444196865509
  C   2.71767623532920     -2.34094057010776     -0.86163536062519
  N   2.28948640008687     -3.21870829585053      0.21280435005580
  C   3.30330312254149     -4.08700697445868      0.80060901016487
  C   4.27697072533754     -3.29608509034578      1.67668481201310
  O   3.93480959771291     -2.84353235576492      2.73478902730960
  C   5.69060758031000     -3.14656821379086      1.15408617601278
  C   5.72683296577793     -2.55603001387816     -0.26534241804607
  C   5.01689500533664     -1.22523212145952     -0.29171176010736
  C   5.74346281431693     -0.11051277306486     -0.05039203209846
  C   5.14493368189001      1.19795043024317      0.10723517685648
  N   5.68989407721766      2.33353968551446      0.30521470162679
  N   3.74897885057833      1.16082856755459      0.05147377097410
  C   3.27329317157130     -3.05231128050213     -2.09317371124307
  O   3.11271488878603     -4.22004939682068     -2.30844888879014
  H   1.79734817885377     -1.90619170615825     -1.26876485442479
  H   1.52300090206553     -3.79056193319306     -0.11945442466184
  H   3.85220268425488     -4.67685007221274      0.05734800113638
  H   2.78776119686111     -4.77528757734509      1.47030113477500
  H   6.15071700522715     -4.13960928308255      1.13797015982778
  H   6.24501726708862     -2.51447279291687      1.84671227105858
  H   5.29693094010701     -3.26737059272173     -0.97045431208147
  H   6.76603159237371     -2.41470666334750     -0.56092427116566
  H   6.81831041165001     -0.17429955454552      0.06410894126412
  H   6.70033026044672      2.24886021716724      0.34439213806859
  H   3.28712968267511      2.04592895506279      0.20788778158475
  H   3.79308511479240     -2.39847128056638     -2.82281689681319
