29
Coordinates from ORCA-job 8321optt
  Br  1.36970027538482      0.22699020171251     -0.12727718799572
  C   3.27171791797434      0.05365134566929     -0.12815759471107
  C   3.83108530720392     -1.22596124785299     -0.08223139958657
  C   2.98448368446693     -2.47009941454024     -0.05357080590191
  N   3.78302789587346     -3.67195654113892     -0.24429816115785
  C   2.98206627215003     -4.87807405455109     -0.20181525295507
  C   2.28447936878657     -5.15992092263557      1.11732413513752
  O   1.29066317308240     -5.82223004319799      1.20480709770954
  C   4.97457149081638     -3.67313901165533      0.59121974125541
  C   5.92250804952854     -2.62467377734065      0.03112805039453
  N   6.37270330035009     -3.05020269162617     -1.28314200703577
  C   7.56500961673466     -2.66632901081242     -1.79172754355262
  O   8.38423585010164     -2.00565378187403     -1.19422335314035
  C   5.22073586444429     -1.28316498861734     -0.04316728408911
  C   5.95630175056766     -0.10228841449279     -0.08314177537673
  C   5.27645949910944      1.09824723006182     -0.15018445741872
  N   3.94409973404026      1.17418431533937     -0.16503772507559
  H   2.23517889397786     -2.41902029480640     -0.84650987538125
  H   2.42457953065878     -2.48999776327023      0.89790883620350
  H   3.62627555354310     -5.73849050079848     -0.41105297152398
  H   2.22099165410074     -4.84801031514506     -0.98414859763311
  H   2.75990178860172     -4.73342931528853      2.02411494272250
  H   5.44512721102563     -4.65597178069669      0.54142864288502
  H   4.76212961295741     -3.44311835583964      1.64528807588835
  H   6.80990335372857     -2.52854267055738      0.65696981854205
  H   5.67849372259317     -3.47193185977588     -1.88273231633656
  H   7.73090488741907     -3.03256542692871     -2.81645966998416
  H   7.03809498159959     -0.13698880395265     -0.06866172676339
  H   5.80756975917884      2.04168789461221     -0.18664963511889
