29
Coordinates from ORCA-job 8323optt
  Br  1.19895198614932      0.15550122917221      0.17055455452752
  C   3.06194851327642     -0.01385055895037      0.03904408121484
  C   3.68843471638471     -1.19648186521986     -0.03746376356511
  C   2.99116468838835     -2.54035390780334     -0.03905155790565
  N   3.85722016394318     -3.63834460785950     -0.43044628997282
  C   5.13156833178524     -3.59783781841190      0.27507294696445
  C   5.88369413622367     -4.88543493327319      0.00401109480968
  O   7.06222444371444     -4.89354093419667      0.77429161318236
  C   7.76188388331883     -6.10538380685671      0.69694745229681
  C   8.90111191074262     -6.06664728353585      1.68906117895937
  O   9.59178712672765     -7.01573048177656      1.92016939106705
  C   5.94924216960483     -2.36307348942383     -0.09952122310410
  C   5.13644411274007     -1.09547562065913     -0.05296338481936
  N   5.77005091303197      0.02505974280650     -0.03687660568916
  C   5.07254164909326      1.21884313430131     -0.03406801859341
  N   5.54607676244732      2.37850112489623     -0.09072979432944
  O   3.67239820843696      1.15964686242947      0.04832773886338
  H   2.12782388869710     -2.51242695342214     -0.70378348908422
  H   2.60634927907418     -2.75048357438503      0.96375580108912
  H   4.01711628087224     -3.61491237840544     -1.43335203380115
  H   4.90224309984912     -3.56879019869186      1.34576498772257
  H   6.12782301768332     -4.96251565801482     -1.06650010701833
  H   5.24507020853355     -5.73567642347616      0.26720223739580
  H   8.17544769426938     -6.27215342495440     -0.30680704840856
  H   7.11950101589609     -6.96057824003391      0.94081467147379
  H   9.04921378238943     -5.09117640787737      2.18986584340174
  H   6.31559360216690     -2.47849917245800     -1.12690484783393
  H   6.82706775655353     -2.23925229301045      0.53352472752378
  H   6.55900665800611      2.31506793909087     -0.13694015636700
