23
Coordinates from ORCA-job 8328optt
  Br  3.40560751899279     -0.34159998939502      3.29777133059148
  C   3.50386238108975     -0.18718998293117      1.42071297132940
  C   2.67679513217727      0.64434978096117      0.69079717173164
  C   1.87609247166458      1.62765116116634      1.27152786035953
  N   1.10238757014690      2.33330207267145      0.49547424214820
  C   0.38801527991663      3.51358938306930      0.67854887693715
  C   0.08391227975034      3.97019692512932     -0.54945935528276
  O   0.54782778159133      3.17921148378756     -1.54522303676904
  C   0.94690492274485      1.93399426740090     -0.94907144136769
  N   2.06176519783416      1.38119874002658     -1.53621938330153
  C   2.85280661738143      0.64744136954054     -0.79919124275355
  N   3.84464970240662     -0.04962671409852     -1.34751721243307
  C   4.63887085627900     -0.84218280401958     -0.61532327661740
  N   5.60825828919809     -1.59194312130591     -0.96824605286113
  N   4.40484431295880     -0.91789386383885      0.81754377327228
  C   -0.59955912675397      5.16076111739070     -0.89732297337360
  C   -1.17930211264278      6.16335105489396     -1.20156024843833
  H   1.90760446603018      1.86815361093627      2.32839336065443
  H   0.21814502161968      3.96382424968813      1.64050742182666
  H   0.05378184636150      1.28627078879140     -0.97587595038395
  H   5.73734466808295     -1.51033554771807     -1.97279466826065
  H   5.02008010612412     -1.54884816520033      1.31370115792803
  H   -1.69769518295424      7.05132418305381     -1.47717332493610
