23
Coordinates from ORCA-job 8329optt
  Br  1.09111851146947      0.05020973625244     -0.87261449813431
  C   2.94128024021296     -0.11853139289267     -0.53630485911607
  C   3.57585766377220     -1.22836595303671     -0.11200371651915
  C   2.87983086425760     -2.50611456142636      0.24660491481226
  N   1.73493758267613     -2.62031832866885      0.79289888891938
  C   3.63160343968092     -3.72252936762966     -0.03994197825462
  C   4.96360459596443     -3.66919468809501     -0.20899669139584
  O   5.75277137338311     -4.77056012336311     -0.38344342084965
  C   5.22145662126758     -5.86899989429407     -1.00460649308805
  N   5.70154935005499     -7.01726947774854     -0.91158940101424
  C   5.70357964499660     -2.43192452337455     -0.14391711685237
  C   5.05154587519522     -1.25116954262130     -0.09904728104918
  C   5.76739276559505      0.02637974290822     -0.09392185286636
  C   7.20981948823947      0.15652482659514      0.32462034226780
  O   7.88844404191655     -0.72949070924831      0.75561722521441
  N   5.27815743943899      1.16360186145634     -0.42928836415075
  S   3.72241683958375      1.39106928055034     -0.89404983428208
  H   1.32215782788268     -1.72130014345397      1.02475936383378
  H   3.08828881720151     -4.65459691110740      0.03222567358598
  H   4.35903273124244     -5.64593303469884     -1.62943722697203
  H   6.50003970139196     -7.03732444083014     -0.27622539492641
  H   6.78091063498974     -2.48550207806000     -0.14800724370400
  H   7.57920394958656      1.18933972278703      0.20666896454149
