29
Coordinates from ORCA-job 8335optt
  Br  0.93747624428073      1.29556693494063      2.81580081816377
  C   1.66013228300860      1.10391563843017      1.08376616640977
  C   2.72704349752596      1.84003127139748      0.68248830426497
  C   3.16058802239241      3.12123853414280      1.36887037751306
  N   2.11851761462890      4.12298815123641      1.46855435927804
  C   1.52291477485986      4.67676752321169      0.26449010712426
  C   0.71168139528997      3.77291713896022     -0.66633301683200
  O   -0.19778103760074      2.98662694463919      0.10449965435878
  C   -0.87671620922941      2.03632024499975     -0.57057355571960
  N   -1.05262377216884      2.10823956272874     -1.81493233411920
  C   -1.26239867630074      0.88666881887133      0.34294644909346
  O   -0.26264831640787     -0.15485009020771      0.32718133955617
  C   1.02022385551050      0.25849754635902      0.12431523353096
  C   1.63998071921451     -0.05419265262529     -1.04046991897924
  C   2.92319628357600      0.51410857351173     -1.38408484401641
  O   3.59339163733659      0.26614121536458     -2.36636483265654
  N   3.32259675218264      1.52551049428115     -0.49930490491145
  H   4.00695950733024      3.54617185356401      0.82224627889119
  H   3.50661075104186      2.89706966286257      2.37855377808507
  H   1.40156865400287      3.83307942185191      2.11944655459146
  H   2.31303924710716      5.12907543482361     -0.34303109461825
  H   0.87849489008283      5.49359368435623      0.59442274265881
  H   1.33797516428297      3.08951913312505     -1.24508819260924
  H   0.16141033311224      4.38692589367048     -1.38152800316546
  H   -1.55470490662845      1.29552530777500     -2.16129105147638
  H   -1.40885846735767      1.25115091173148      1.35868185497731
  H   -2.17173352301513      0.41035334242459     -0.01571657782669
  H   1.14586534964022     -0.66830685167577     -1.77846436035758
  H   4.13179793230176      2.05134635524891     -0.80308133120904
