27
Coordinates from ORCA-job 8336optt
  Br  2.93398303563524      1.02961650063701     -3.31285658088273
  C   3.76508527391053      0.33883312892450     -1.78227773423558
  C   3.81987938784149      0.97815838356575     -0.60493641411955
  C   2.96178476528824      2.19481033102522     -0.23602382188725
  N   1.51097993469121      1.91454694429976     -0.11569661759509
  C   0.91798817030314      1.16528262106431      1.01464196969398
  C   1.96240766616723      0.11591977749891      1.29874525140485
  O   1.87574635109276     -0.88053373554607      2.32176435227599
  C   3.01895717664858     -1.58152780293734      2.41825455861175
  N   4.06367857424348     -1.61478756880060      1.68979981182957
  C   4.28005210319295     -0.88906820199764      0.53391251607783
  O   4.17753117330992     -1.65846339061979     -0.56441058998024
  C   4.25566637468989     -1.04089212924921     -1.82633950637397
  N   4.58740737590147     -1.69045917541455     -2.84105996888571
  N   4.44862787126084      0.37896340555937      0.49318204900524
  C   0.65534839731692      2.67238749151279     -0.89359250586101
  N   -0.59600674604322      2.83951072088286     -0.79108112642882
  H   3.06233333983888      2.95682513023773     -1.00667199232142
  H   3.35500973896686      2.60680041151385      0.69602163695164
  H   -0.02502499017389      0.73824222943177      0.67354150564229
  H   0.72554818709412      1.81502653434193      1.87481037586231
  H   2.84380339012609      0.67549304563529      1.55921320022953
  H   2.09423255556742     -0.41368857152931      0.35544145468576
  H   2.97899183224395     -2.23102046332549      3.28694321338214
  H   4.82395601335201     -2.65395692466831     -2.61154902874999
  H   1.17110865931003      3.17011260247329     -1.71361141490033
  H   -1.00807561177619      2.36786870548398      0.00983540656882
