25
Coordinates from ORCA-job 8342optt
  Br  4.28641791363239     -0.23317092585891     -2.99961636974359
  C   3.56694879662789      0.13673907284641     -1.31144639501526
  C   2.59650967999898      1.05637271187148     -1.11993373852700
  C   2.00576400536413      1.94122725006230     -2.20350034212517
  N   0.94544057581244      2.84119843213431     -1.81802522961073
  C   1.19251810261116      3.78639755986037     -0.73513325599757
  C   0.53864584400762      3.32437131236484      0.57368748539352
  O   -0.63169466283629      3.06962708091367      0.61345937782729
  C   1.42338693204719      3.16000763752996      1.80453102522459
  N   2.33288256812345      3.92996609000273      2.19504354100607
  O   1.16053113486706      1.99362007634307      2.46449965166071
  C   2.25107074509612      1.10814340643819      2.53779220126349
  C   2.65293416224565      0.71143416842031      1.13819100314171
  O   3.61386735245171     -0.20226506869663      1.05900156225240
  C   4.13215906767884     -0.59988938604054     -0.18798803172744
  O   4.95997061266188     -1.44868158410580     -0.19896956454521
  N   2.11701507518488      1.29501223137040      0.14368146538185
  H   1.64491275521688      1.30575400515155     -3.01522879541942
  H   2.83394287531490      2.51564434319777     -2.63301463853722
  H   0.06267714163659      2.36680297145599     -1.67357263830496
  H   0.74843492623177      4.75430741631174     -0.98804296025450
  H   2.26674077264772      3.92524454156088     -0.61160446279089
  H   2.41479007935275      4.75131482688909      1.59976550623369
  H   1.93439897431607      0.23615150075265      3.10808577133397
  H   3.11373456970818      1.56267032922418      3.03433783187970
