30
Coordinates from ORCA-job 8349optt
  Br  2.70031384386657      0.41575525708887     -3.48380572986770
  C   3.79943739793300      0.02725966286010     -2.00441022178567
  C   3.87604707117753      0.86688990112885     -0.96125373800533
  C   2.96977340372114      2.07284758641449     -0.71209733178815
  N   1.55439640041178      1.75074839505580     -0.44886292168293
  C   1.06991421611337      1.07998498310093      0.77601385184609
  C   2.21883778460368      0.20137806688444      1.20388696017621
  O   2.15824128799175     -0.69870512415683      2.28849902228320
  C   3.16856784812697     -1.66337082978725      2.11917049328136
  O   4.46510475092074     -1.13256828335688      1.75767583711695
  C   4.65077089538798     -0.88346153553196      0.42294480078183
  N   4.70256077434801      0.47105784697025      0.09595360907994
  C   4.62132574608888     -1.78223147118892     -0.56597439331443
  C   4.45747446199420     -1.31119043451999     -1.95286919153931
  N   4.70197737666113     -2.07701356803367     -2.93587874564937
  C   0.60916893881375      2.38593394806314     -1.23058087751184
  N   -0.64032429689394      2.49015300198461     -1.05220755888874
  H   2.97580972526405      2.70867069597455     -1.59553977200618
  H   3.39347172200154      2.66462655716240      0.10722458418643
  H   0.19283469392422      0.48801479073222      0.50921346372724
  H   0.78304515690739      1.80795823750750      1.54241008995251
  H   3.01729363142064      0.88746290805484      1.44624114341083
  H   2.45505239927705     -0.37354383861524      0.30974306898888
  H   2.87768720474411     -2.36888497107305      1.33692557987238
  H   3.30592765995570     -2.14938993345080      3.07926486586709
  H   4.73253911439977      1.08453721006490      0.89363616630486
  H   4.57624924071180     -2.84421643746773     -0.37574036260941
  H   4.43194065210546     -1.64302289988135     -3.81862033015309
  H   1.03833903194537      2.83390852309365     -2.12603735510216
  H   -0.96477813392371      2.06541175492211     -0.18692500697151
