19
Coordinates from ORCA-job 8350optt
  Br  1.24845600490522      0.14492952878385     -0.41843600119924
  C   3.10401736650465     -0.07686053725540     -0.19549025450659
  C   3.66501762209658     -1.31592278466159      0.05874166043969
  C   2.87664293507720     -2.51088986665263      0.17937113179180
  N   3.35641106360809     -3.68795480493305      0.41095296491891
  C   4.71205255747597     -3.80510375294985      0.54019129849753
  C   5.56137724443866     -2.75923089252930      0.44806807188969
  O   6.91338466485875     -2.94810402052027      0.65723502800027
  C   7.71231416507768     -2.73159451979797     -0.40377355172755
  O   7.36924322644067     -2.58318186050090     -1.52846658822852
  C   9.11634153771639     -2.74778112053751      0.02851662813965
  N   10.22024100282299     -2.76740077803355      0.32740110636823
  C   5.09734982724374     -1.42225406747084      0.20981869643356
  N   6.00916853994728     -0.48095195070106      0.16230415776211
  C   5.76516127825573      0.81650904411397     -0.06067101203015
  O   6.52638559732404      1.72967217877676     -0.11795229363395
  S   3.98086712641368      1.34612198213564     -0.33517746760649
  H   1.80144998756700     -2.43165050181189      0.07226000042700
  H   5.10111825222564     -4.79835127545437      0.72810642426405
