28
Coordinates from ORCA-job 8351optt
  Br  1.94920585101135     -0.37345388011215     -1.95668669219535
  C   2.39496567244406      0.52494349182695     -0.35500949414360
  C   3.15286722997457      1.68320746446073     -0.40449545741718
  C   3.25034057015097      2.63951363315001     -1.56954668283733
  N   2.72821450462920      3.92400621555403     -1.09635337353916
  C   1.28614177090008      4.15434689998538     -1.13449853795039
  C   0.34628803320636      3.07535458102149     -0.62608807720550
  O   0.48553069325825      2.76793251668620      0.77523191827220
  C   -0.42848743402281      1.88043982139455      1.21343424993210
  O   -1.38536974212291      1.55588643355533      0.56867643924414
  C   -0.19278328512861      1.29600255360285      2.61489313715954
  N   1.19009976489273      1.03305246827061      3.00918148583909
  C   2.09545182214750      0.93059198496217      1.96619163881199
  N   3.10435448868968      1.79600901684410      1.98287214524913
  C   3.61510221256980      2.15521024976403      0.82735832267232
  C   1.87779381915855      0.09122787776344      0.86720446945336
  Br  0.79776926891287     -1.43889778136633      1.04978790928110
  H   2.71682282953187      2.24250349561917     -2.43966236571995
  H   4.28822730681548      2.79736536611475     -1.86806429723012
  H   3.18924060025813      4.68926633351316     -1.56817581252721
  H   0.93154064044777      4.31499045887549     -2.16491627726089
  H   1.09243796523755      5.07617318069641     -0.58266542275452
  H   0.45731388336897      2.14362322913783     -1.18524715662175
  H   -0.67017631395359      3.42821864697837     -0.80019733604595
  H   -0.62545558416656      1.99135255042766      3.33585214581767
  H   -0.79302366899387      0.38809492077242      2.63309831250736
  H   1.54397443752741      1.71122726579545      3.66985551998192
  H   4.35961266325518      2.94281100470584      0.84896928922698
