27
Coordinates from ORCA-job 8352optt
  Br  3.00051623363044     -1.36489626434819     -1.47595321324593
  C   3.14589767571340      0.09474826274804     -0.31649729883381
  C   2.37868550445125      1.20200190049904     -0.40514615959888
  C   1.23483274927451      1.41003652094584     -1.35038536818610
  N   -0.00992885832613      1.21095934930290     -0.60175700193283
  C   -1.11935657159270      2.03500797998290     -1.05262199959410
  C   -0.86057750002795      3.53412525389328     -0.94596853760891
  O   -0.68648874980768      4.21680705142334     -1.92165313386513
  C   -0.89999387463544      4.18669690746138      0.43617154960732
  O   -0.20235873162096      3.49231069469701      1.45556999179761
  C   1.13807808032682      3.84402142160132      1.56105285156133
  O   1.87453352711610      3.37568538096436      0.44456082629447
  C   2.60551846623289      2.23704956950968      0.57860994652447
  N   3.46279348592623      2.16057859145595      1.52692736255303
  N   4.18371417788577      1.03518781142776      1.59330136779811
  C   4.14760017095089     -0.05545936147870      0.75129206813363
  O   4.86465330270234     -1.01356732334965      0.92778534495614
  H   1.28626063432099      0.70127552130748     -2.17510683426271
  H   1.31210196006450      2.42159438173472     -1.76407671436425
  H   0.13301504220141      1.35601586109378      0.38939164458707
  H   -1.99788089227250      1.77573534336468     -0.45697006150676
  H   -1.33202262549286      1.81810151584742     -2.10041602534526
  H   -1.94837665115322      4.21735405298314      0.74553525666526
  H   -0.53209810857367      5.21098426573529      0.33358700452647
  H   1.52373068696567      3.40541004727399      2.47898259728347
  H   1.25191205692509      4.92971157441272      1.56182176344518
  H   4.85023880881479      0.99352368951049      2.35096277261111
