26
Coordinates from ORCA-job 8355optt
  Br  1.88456005661904      1.69295463355519     -2.78746004063455
  C   2.85399592613459      1.05910726666724     -1.29047142886998
  C   3.65394332439401      1.87269717055462     -0.56880566760802
  C   3.54252737866896      3.36538171638237     -0.46149930708066
  N   2.58773577703092      3.69262727547554      0.59808971631526
  C   1.24726096126362      3.18181953224959      0.38824412310205
  C   1.06868132820254      1.68406673287042      0.65999267088867
  O   1.58741551221952      1.12311084438807      1.58643734271170
  C   -0.01602410562287      0.98987140635409     -0.18884029163088
  O   -1.06416809937911      1.56200786398054     -0.26151991522101
  O   0.12028711544674     -0.22525813925929     -0.73099959082732
  C   1.30898712727537     -0.95015361432789     -1.09287857837509
  C   2.60153266550738     -0.26650384222680     -0.77103220167290
  C   3.41895396857600     -0.75827832476233      0.17028084197009
  C   4.54624770445462      0.02315859806774      0.65938795207335
  N   5.54581688582930     -0.32116964873037      1.33986917217294
  O   4.43739440886199      1.37956519574732      0.40114070699301
  H   3.19876314529024      3.79750151418855     -1.39875515226263
  H   4.51001292298558      3.79237503696036     -0.20449174791452
  H   2.94355935368799      3.39892301706354      1.50202517862449
  H   0.91475816254755      3.42105436410487     -0.62133918644268
  H   0.55920864561437      3.68586093397424      1.07286032452422
  H   1.21338907116812     -1.12545133025787     -2.16503384213158
  H   1.25902597412459     -1.90211566070910     -0.56857057751665
  H   3.21371879303053     -1.70079796050439      0.65992066277542
  H   5.53241599606834     -1.32235458180628      1.51244883603729
