21
Coordinates from ORCA-job 8357optt
  Br  1.11801178282678      0.13072352193583      0.07361694762046
  C   2.97145339737753     -0.06982873380466     -0.02731900803019
  C   3.63251691820385     -1.25898937156547     -0.05786842316403
  C   3.36429071108587     -2.64846942810557     -0.06490050396986
  N   4.49031151491157     -3.33040649046769     -0.13443329417792
  C   5.54046733818949     -2.45480948858912     -0.15593597936446
  C   6.93227346161512     -2.90825622020824     -0.26017469631525
  O   7.27924658113637     -3.99116968894976     -0.64272200066705
  C   7.99883268058667     -1.93073177038669      0.25875731367220
  O   7.95059331626970     -1.43165191805096      1.34007119371652
  O   9.01078575020307     -1.80017820044187     -0.62379284046903
  C   10.08712867060063     -1.00333359994371     -0.27293685022047
  N   11.08214444850003     -0.87238091433356     -1.01212944795425
  C   5.07537692411654     -1.15089043868604     -0.11748126346678
  N   5.72743651415527      0.03860097883766     -0.18205593323766
  N   5.07536143886580      1.11328233069225     -0.16317069680757
  N   3.71025467042340      1.04527967925268     -0.07475592063096
  H   2.39995586140767     -3.13208248563454     -0.01950378711262
  H   9.97794434561947     -0.51390407306299      0.68780855227614
  H   10.98720989331775     -1.42272890009963     -1.86669374568457
  H   3.27740378058735      1.95792521161207     -0.06437961601265
