24
Coordinates from ORCA-job 8367optt
  Br  1.42232588405785      0.30364985921756     -1.36960060522743
  C   3.04814835793528      0.13275421949848     -0.43633305943390
  C   3.57554618906927     -1.04060192594508      0.01371712946826
  C   2.92562325428848     -2.38739189506560     -0.07554971436193
  N   1.59828241608179     -2.46953862737365      0.03993231787458
  C   0.91370511566076     -3.73054954767031     -0.01311689691907
  C   -0.57102246903368     -3.49568652959778      0.02343836294132
  O   -1.05864934662808     -2.40110782109665      0.06762928192115
  N   3.57469800127925     -3.49785628645820     -0.22806853079980
  C   4.90588554109657     -3.69627768235466     -0.00492425303178
  O   5.51675008971016     -4.66974274946007     -0.34093545775616
  S   5.74864189124838     -2.50256069291878      1.06733927670111
  C   4.89923166230475     -1.03741422686336      0.59855814272715
  C   5.53857897048249      0.14001975913207      0.74704951393545
  N   4.95768647904507      1.31181937481554      0.37291170113858
  C   3.73704866454870      1.42631188353511     -0.27735905139288
  N   3.23193760875825      2.51818296982417     -0.69642156238803
  H   1.01387540374107     -1.64556764351285      0.06618977943006
  H   1.19846422722253     -4.38190702376274      0.82060278479581
  H   1.17161678727473     -4.28713870454233     -0.92119590058572
  H   -1.19578370529510     -4.40501793110949      0.00664806394422
  H   6.53648835668474      0.21107871774938      1.15572292022212
  H   5.47742076526350      2.16568574544987      0.50302034401458
  H   3.82949985520319      3.31985675850940     -0.51125458721769
