22
Coordinates from ORCA-job 8368optt
  Br  1.51863677937150      0.25768839775492      1.53786983511051
  C   3.18825495940215      0.05043458922661      0.74659046030507
  C   3.74044137739684     -1.12117819201877      0.35445200460227
  C   3.13172930961995     -2.45486752603316      0.35577193681141
  N   1.88430499991698     -2.64443451621640      0.38559509267800
  C   1.34297522359852     -3.98380776472455      0.40254137415488
  C   -0.08490458081898     -3.95238514551196      0.90369172511880
  O   -0.70171140592812     -4.94122922226898      1.17669744271382
  N   4.02104247544202     -3.57712538549787      0.30819610010786
  N   5.19809019690693     -3.45874328728394     -0.05810091938339
  N   5.69146268866113     -2.24932857647223     -0.40665770580476
  C   5.10120194082430     -1.04548756681623     -0.12247688599819
  C   5.73917995401358      0.14001801431502     -0.25522656788736
  Br  7.50820097864525      0.22526438505509     -0.87797877960801
  C   5.07488122673256      1.38621742139502      0.07633159743364
  N   5.44076516890223      2.57962450766421     -0.03412053604409
  O   3.80756236841855      1.21535625621821      0.64272965769718
  H   1.92593505971467     -4.69135283592289      0.99590174970872
  H   1.31359348644458     -4.38451873665029     -0.61765313340467
  H   -0.52845356337420     -2.94216074968105      0.99290987067881
  H   6.66773271917999     -2.28110488918415     -0.65902927438495
  H   6.36907863692951      2.64812082265343     -0.43903504460555
