26
Coordinates from ORCA-job 8372optt
  Br  1.10724695848086     -0.17018526952027     -0.39676023026749
  C   2.98294816047964     -0.04578992379623     -0.20739336134782
  C   3.62060128407332      1.19203980894664     -0.09716945112786
  C   5.02838179331339      1.21511999901922     -0.04783066133410
  N   5.75333978054344      2.38554318956089      0.03579938136734
  C   5.16044857513943      3.65635361539029     -0.33025037168720
  C   3.91090689851940      3.86595666629227      0.49978491456276
  S   2.66691621314352      2.68847599376405      0.01982097841276
  O   1.72895740348682      2.57376097345904      1.09942907260475
  O   2.20377424248659      3.06010430063428     -1.28895399309617
  C   5.72685068223395      0.00620044266072     -0.05481352481290
  C   5.07111453605930     -1.21318870647251     -0.12176000749183
  N   5.83194563981803     -2.37472567382939     -0.09544729357425
  C   5.39575864383632     -3.66614497225371     -0.31241560804428
  N   6.07636907041406     -4.72721603101660     -0.21837844964451
  C   3.67530555897900     -1.23803432333360     -0.21365609332302
  H   6.73210845136097      2.28400353476308     -0.17695648695815
  H   4.90453844583755      3.70160034932834     -1.39549494885266
  H   5.88248163185278      4.44328466302154     -0.11780678347024
  H   3.44503111690788      4.83409878190974      0.31611256665181
  H   4.10380533523503      3.72986646451145      1.56283397452133
  H   6.80976330965709      0.03051704544572     -0.00820215422562
  H   6.81523337139496     -2.26212151553209      0.10074104944492
  H   4.35436117414759     -3.73884972029693     -0.60982709810652
  H   7.03888110465011     -4.54938693457440      0.07131237551300
  H   3.11993061794892     -2.15928275808152     -0.27571779571406
