23
Coordinates from ORCA-job 8376optt
  Br  4.14284792243730     -0.34240484152572      2.96547644814955
  C   3.76661414302043      0.00851679377601      1.17084130510352
  C   2.83440405844345      0.88602117953109      0.77296971566505
  C   1.95420347328051      1.72867465834216      1.60407962263810
  N   0.69796007801701      1.53086046482336      1.55263282500720
  C   -0.00555032753214      2.73966929035515      1.55337964615504
  C   -0.90292439142652      2.86801538117302      0.57135600483034
  S   -0.90606809006217      4.35925699113622     -0.36404745054760
  C   0.61362937173347      4.04466893037672     -1.30828283457815
  N   0.91808166695480      4.64308747674010     -2.36980108348420
  N   1.48783710728964      3.11582940049238     -0.70203199356238
  C   1.81852179800265      2.05957766157908     -1.30614010131786
  C   2.72514247264655      1.03754833792209     -0.67759469663407
  N   3.39196341646695      0.32319365118463     -1.50999991052949
  C   4.29928022060797     -0.61879090248620     -1.04636598296720
  N   4.98383461359145     -1.40621048653661     -1.73740530993888
  O   4.50746783706007     -0.70448183754961      0.33866237041550
  H   2.38157766588699      2.66229778001972      1.98469094948737
  H   0.42319391819955      3.60994185157860      2.04908756648095
  H   -1.29403316304292      1.98155537377353      0.08885683829294
  H   0.20430616555333      5.30903217017318     -2.65990646998021
  H   1.49739190784151      1.82011342350025     -2.32244844681176
  H   4.77431813503008     -1.25297274837918     -2.72000901187377
