24
Coordinates from ORCA-job 8378optt
  Br  0.93632164112703     -0.16070251318882      0.22479968083787
  C   2.79822939746247     -0.25099109525070      0.09241594197296
  C   3.51035476328185     -1.37943411968665      0.27682405963147
  C   2.91735522964008     -2.75573776411171      0.48219954644582
  N   3.35390332214908     -3.68045495025872     -0.55281139172925
  C   4.51595175573276     -4.51730411028511     -0.35280355460500
  C   5.83717123641625     -3.76727817384278     -0.49357942981863
  S   6.00326986458268     -2.46813536869512      0.70502769470349
  O   7.29238879195712     -1.89317909295932      0.59991047518480
  O   5.47306078345175     -2.92939603996589      1.94670708196637
  N   4.89125199336544     -1.27403686390971      0.14519442829338
  N   5.51352181409980     -0.18702431211869     -0.39464077545311
  N   4.87402946386781      0.85026174311845     -0.61277364695139
  C   3.48831320336713      0.99208159561116     -0.24443435239201
  O   2.99321642342302      2.08069473957465     -0.27708736711239
  C   2.72846701919992     -3.61672889083109     -1.76618568956999
  O   1.83683650470403     -2.85165138678025     -2.02604976281774
  H   1.83708072435598     -2.66035488153513      0.41695890636626
  H   3.19108086005968     -3.15434694533972      1.45657691964374
  H   4.49678830933045     -5.31609260288509     -1.09461560565160
  H   4.46388888506266     -4.97737880171504      0.63471809500180
  H   5.96630912221760     -3.30636507425347     -1.47344933813689
  H   6.68839854029841     -4.41975093653642     -0.28814785762982
  H   3.11881035084693     -4.35369415415480     -2.48775405818015
