30
Coordinates from ORCA-job 8381optt
  Br  2.00984779670562     -0.36025355108083      1.56689919071639
  C   3.48072082079325      0.09911961146562      0.45074252947948
  C   3.96549821191507      1.38398896392991      0.37217145075283
  C   5.10910612819618      1.52862656561473     -0.43027691231847
  N   5.69397055136580      0.55020061559117     -1.09300446745046
  C   5.08331981379450     -0.63123166363814     -0.97248455010170
  N   4.01509372603605     -0.89907877363373     -0.23529396814303
  C   5.56248246351972      2.95950941368385     -0.26599175461333
  C   4.20859852736966      3.65863383295325     -0.13252767994067
  C   3.70922235887730      2.73249645902417      1.01002888796346
  C   2.33225119758364      3.01257542304771      1.58084265938854
  N   2.17758452506822      4.42263480046649      1.89132359064957
  C   0.97043682604298      4.72673166980964      2.61145089804584
  C   0.53598555136013      6.15025866308002      2.39841390845758
  O   1.00621679572941      6.86692275331173      1.55971916813361
  C   4.88918931808839      2.92571555584000      2.00162480359363
  N   6.06713915212970      3.09393021595265      1.12176595977377
  H   5.50632565728826     -1.46054221855057     -1.52696321644726
  H   6.26733968347876      3.32787049665164     -1.00450487284501
  H   3.59599939982182      3.58937107726488     -1.03130631091407
  H   4.31933733768541      4.69397322837077      0.18732317855891
  H   2.20398288456866      2.44474282079687      2.50554500398707
  H   1.56257152110051      2.64870524061031      0.88359583191163
  H   2.22416940632146      5.00301550024397      1.06080683602910
  H   1.09386316159863      4.55812990442994      3.68742070499405
  H   0.10362746112393      4.10972526981256      2.30920084609173
  H   -0.28341797880855      6.49966985807858      3.05306767552417
  H   4.98597438100027      2.07004626437542      2.67250135387906
  H   4.71613514062981      3.82589154819008      2.59184278971079
  H   6.78942817961539      2.41262045430730      1.31706646513274
