26
Coordinates from ORCA-job 8384optt
  Br  1.27934766031420      0.77852292220360     -0.18033636640573
  C   3.11995061596720      0.35342832016993     -0.05306930125616
  C   3.60510900828132     -0.94623595606833      0.02080062826752
  C   4.99922628758814     -1.04335085273725      0.00445402159672
  N   5.82602085831914     -0.01328472882469      0.00110434843566
  C   5.23313039206392      1.17670184636048     -0.01303950799046
  N   3.92728300335576      1.39795752057072     -0.05967576296277
  C   5.49623705374279     -2.45946354912784     -0.02281298009330
  C   5.04913984939319     -3.16232388156695      1.25920390415390
  C   3.51410777751846     -3.05264065341557      1.34718795639987
  C   2.96619697208241     -2.32536638119817      0.08680847283577
  O   1.56668339698673     -2.38958448109215     -0.00873929471221
  C   0.80535380248283     -2.10109900621282      1.08567043521387
  N   -0.40847506443674     -2.38113785943829      1.17587990719952
  C   3.52238920561703     -3.10968216070186     -1.11360370086558
  N   2.87915883760275     -3.71562854912594     -1.99798172079173
  O   4.87677153997602     -3.12306997295174     -1.13071167994368
  H   5.87213547808927      2.05170121490345     -0.00261924075202
  H   6.56757868055712     -2.50103369711591     -0.19240949095516
  H   5.53426399557670     -2.70255542444727      2.11904377643361
  H   5.36675832665478     -4.20249050909257      1.20540866072756
  H   3.21785110571383     -2.50279060473647      2.23854861545600
  H   3.04131933909505     -4.03416199075959      1.38235979542945
  H   1.32006302194383     -1.57443397343203      1.88552189474863
  H   -0.74354623031402     -2.86267429218671      0.34050949729414
  H   1.88094508582825     -3.59930329997601     -1.84550286746341
