27
Coordinates from ORCA-job 8387optt
  Br  1.28981692200015     -0.44185650593664     -0.22267131264330
  C   3.13992714169661     -0.09589346154475     -0.05319643479892
  C   3.63947192034456      1.20318265212883      0.08037172627247
  C   5.01870444761558      1.29675871889958      0.30652469761716
  N   5.79696698509341      0.21346715347020      0.35133291506344
  C   5.20443151839033     -0.95556198417082      0.17456615243509
  N   3.90563198682225     -1.16411728821460     -0.01300100999312
  C   5.71253868255031      2.61330061371454      0.54488041982115
  C   5.38015906963677      3.69958962005352     -0.49879599203578
  C   4.13954477698940      4.51447415279507     -0.10092508132986
  C   3.21217510809181      3.66642882759567      0.77312063817402
  N   3.87410334741729      3.37450543705070      2.03589791057993
  C   5.31191102629113      3.11457318484987      1.95608219766079
  C   6.10883511560690      4.30343440505765      2.29827358312928
  C   6.78301964247581      5.25920182208118      2.55560609662264
  C   2.80530862112320      2.44605275540040     -0.05304404653122
  O   1.88006530853070      2.50759674075183     -0.81810448330436
  H   5.83514136742718     -1.83729442707714      0.19203724062192
  H   6.77944754154985      2.39862582925208      0.53801197716969
  H   5.23145989042444      3.22525588129401     -1.47097595665460
  H   6.23976246710889      4.36138289586436     -0.59424199353457
  H   3.59183535576489      4.84928418415288     -0.98047179270927
  H   4.42770867968546      5.39197780843735      0.47849879467180
  H   2.28729373113308      4.21091526188936      0.96758822233418
  H   3.39719851835135      2.65814481538207      2.56385233122148
  H   5.55774339982961      2.33859150156396      2.68409711593185
  H   7.37179742804894      6.11197940525881      2.79668608420809
