26
Coordinates from ORCA-job 8388optt
  Br  1.08535283473070     -0.34304773132489     -0.23161395203438
  C   2.94738140120498     -0.14595112927319     -0.00228720510078
  C   3.51720378787836      1.11990903691419      0.09221576639916
  C   4.90575042567936      1.17202612155336      0.23885187123123
  N   5.62337535504658      0.04686482039189      0.28104553330010
  C   4.97000271329219     -1.09803536064969      0.16769719880297
  N   3.65780503944922     -1.25138988450843      0.02525553294058
  C   5.71323490051269      2.42662527763808      0.47735480195335
  C   5.68870997155831      2.91353662672789      1.93710888572133
  C   6.27907740569612      4.31307237234952      1.83474297717836
  N   6.68401720343996      5.10047215644057      2.73828940110090
  N   6.30640677407491      4.63442603151571      0.49213933701636
  C   5.48376975373814      3.74282606929802     -0.30408423058936
  C   4.04655575461306      4.26143164321401     -0.35177666444118
  O   3.17609549620563      3.25485451802218     -0.86283205149929
  C   2.74347692049032      2.39302974333955      0.09827819859511
  O   1.89187420672404      2.66403232987721      0.88265721026904
  H   5.56210743989606     -2.00569331351410      0.18992469870576
  H   6.74013225429370      2.13801742446408      0.25436935577671
  H   6.26125782377658      2.27575252606707      2.60721110628975
  H   4.66571635508704      2.98286947656646      2.31961843226097
  H   6.62159838193413      4.66930361489913      3.65562447249680
  H   6.45062218304073      5.59941696590497      0.23652721881587
  H   5.86845820687172      3.64912715428760     -1.32019079277953
  H   3.97651339225136      5.11628945502922     -1.02284330425632
  H   3.70750401851402      4.57823405476953      0.63871620184650
