27
Coordinates from ORCA-job 8389optt
  Br  1.47221498295213     -0.48858986174361      0.83772729948153
  C   3.25919982062515     -0.40265997904076      0.21690913811907
  C   3.81317099168302      0.82153816475426     -0.16660492211144
  C   5.17310446821239      0.77851959899395     -0.49187559806282
  N   5.84550347909848     -0.37471288557963     -0.50622196540039
  C   5.18683145271018     -1.47033837916236     -0.17909770209564
  N   3.91854524680247     -1.53754042725674      0.21319329409493
  C   6.03743796174725      1.99704004991695     -0.73467198430360
  C   5.42540842080988      3.19022989719410     -1.47265500100788
  N   5.20562263939991      4.23820688303116     -0.44832671410251
  C   5.38588555297844      3.71971551072365      0.88908915897068
  C   4.09450950199862      3.18681429895509      1.61130598722503
  N   2.96899123363545      2.94786622351237      0.73574196049238
  C   2.92200103539986      2.02554115833923     -0.28189070486498
  N   2.13632012488178      2.04361532244301     -1.27976287556838
  C   6.33287990409947      2.55557324899269      0.66690824140694
  O   7.11561517312123      2.11886195023352      1.45507726214375
  H   5.73375972776144     -2.40536689187720     -0.21781241586673
  H   6.96277195353883      1.63732370482178     -1.17654786104768
  H   4.50842447927778      2.91795522685706     -1.99422773546558
  H   6.13393390578356      3.55772846895825     -2.21514265740539
  H   4.33902718203471      4.73683950489577     -0.58339763327653
  H   5.87075531512314      4.44190708080868      1.54700514299555
  H   3.76734391227046      3.92615955233320      2.33976200014179
  H   4.33619423269854      2.28167031518152      2.17247967578098
  H   2.33815867820741      3.72493676310955      0.61217148233240
  H   1.53238862314837      2.86616550060445     -1.28313487260544
