24
Coordinates from ORCA-job 8390optt
  Br  2.38869947661162     -0.92704718249968      1.12913154608615
  C   3.53270783105392     -0.22606665792985     -0.20032492311821
  C   3.86663432588623      1.11385095452863     -0.22292909118070
  C   4.81911473585748      1.47368728052001     -1.17732310634855
  N   5.34269083146769      0.63994754460911     -2.05722718931264
  C   4.88939958477537     -0.60902261567073     -1.97066983152328
  N   4.02593685176959     -1.08007325769364     -1.07766505363458
  C   5.19266154183136      2.92213676103001     -1.02496492908345
  C   3.93616410700045      3.45970480787647     -0.33489452129109
  O   3.44715663406199      4.53492518644825     -0.44107566869139
  C   3.49964923789189      2.31332772825717      0.61993236334780
  C   4.49982450395166      2.45009059028925      1.81036681619078
  C   5.96928314534726      2.33873824695210      1.36982952765476
  C   6.28237266578344      3.05595483515745      0.06604464895631
  O   7.27578755799939      3.69051762348981     -0.12549724698543
  C   2.11938902315964      2.43820436915976      1.04809819772425
  C   0.98627446586396      2.59946188168509      1.39394052742031
  H   5.27464169063608     -1.32121952131221     -2.69042914321818
  H   5.49353639616530      3.44642369529402     -1.92598878918795
  H   4.27041529857989      1.67281744069496      2.53947055717049
  H   4.31105306249970      3.41663217034867      2.28023482503647
  H   6.22918633940444      1.28715744902610      1.21525184536072
  H   6.63881228515872      2.72665268782522      2.13462427901032
  H   -0.02539159275714      2.73219798191403      1.69606435961712
