21
Coordinates from ORCA-job 8394optt
  Br  5.04060321903299      1.13342452279799      3.30812493458657
  C   5.20174507600860      0.70301675544643      1.48252038252986
  C   5.50654103856585      1.64448489377842      0.51713027783704
  C   5.34045601775165      1.18914781756188     -0.85951449493651
  N   5.03165000310180     -0.12477334024941     -1.06880945826632
  C   4.85718454331992     -0.95672708734244     -0.03713654590361
  N   4.91989557386728     -0.57751670857190      1.20880303841214
  C   5.48553835978834      2.23451401457189     -1.73532664491707
  C   5.75125842974555      3.36031732002336     -0.92384820595108
  C   5.81019691200551      3.03923372149172      0.43164670002081
  C   6.37213775275826      3.98460587206701      1.41039008319156
  N   6.92307703114348      3.77612472129402      2.51960063354327
  O   6.47707261630957      5.27724679440635      0.92517424461495
  N   5.23512652286815      5.88983098447847      0.46437568818590
  N   5.00209294602358      5.67484781949007     -0.69378127154984
  C   5.82946222579079      4.73342986492704     -1.46218678558158
  O   6.31484738626378      5.07431815777132     -2.49277147085494
  H   4.91338786632832     -0.46661936684456     -2.01257765502878
  H   4.63632758465068     -1.99002260218660     -0.27140807388720
  H   5.39271538965820      2.23398008599206     -2.80897243776992
  H   6.94168350501754      2.78713575909681      2.74556706172474
