21
Coordinates from ORCA-job 8395optt
  Br  1.21014780085764      0.50127149609871     -0.21261581945845
  C   3.05353899779647      0.27911922829977     -0.01439867366313
  C   3.63947569452532     -0.95619354679280      0.01926509234030
  C   5.06265605378303     -1.03337046774549      0.13768726231838
  N   5.69709211330923      0.19046765727346      0.20521685842932
  C   5.02669835493344      1.35666819922263      0.17131529838441
  N   3.74485790387687      1.44924762973530      0.06851178739479
  C   5.77528942169479     -2.19856046982621      0.19424516883948
  C   5.09664181134843     -3.44477303462528      0.19226434891392
  C   5.90586756186996     -4.72949776574244      0.29502573511106
  C   7.24879359574388     -4.55373103492938      0.83796811471105
  N   8.30181193695994     -4.38669291572782      1.25678458768837
  N   3.82584260084352     -3.64873373698406      0.09520994512295
  S   2.73498413461375     -2.48401315155321     -0.17930616872637
  O   2.35251475175548     -2.54470315667104     -1.55438917296817
  O   1.73880080038486     -2.55468213568869      0.83872752938027
  H   6.70384686270784      0.20231022274711      0.29117905507203
  H   5.62769068721378      2.25692838526179      0.23040139755349
  H   6.85038271520212     -2.17462388073469      0.29925389250297
  H   5.98504172244875     -5.15805534531650     -0.70696421457891
  H   5.34802447813079     -5.43838217630113      0.90561797563224
