28
Coordinates from ORCA-job 8397optt
  Br  4.95925541016879     -3.52835976382780      1.80732753785604
  C   5.38208506265251     -2.85811477552372      0.08512308043164
  C   5.34094796915918     -3.59841329863633     -1.02502917304505
  C   5.53784063296114     -2.89202504768462     -2.35180147212454
  N   6.42972495961380     -1.73165888152667     -2.22375698564808
  C   6.93393582270089     -1.53944337158968     -0.94956233638319
  N   5.92368481234182     -1.55674301103939      0.06193414160157
  C   8.23796390158216     -1.55317853328678     -0.64359463650534
  C   9.20875727627134     -2.15835019613350     -1.59699277113352
  N   10.31249887854203     -1.67136661918694     -1.99546164721523
  C   8.80430001848202     -3.50604382968890     -2.10585904335843
  C   8.05378155613204     -4.33699419108634     -1.38519858354563
  C   7.48092170829518     -5.60169718934224     -1.90170659607227
  N   8.10147048176059     -6.48540343238232     -2.57141021318634
  N   6.14362340103878     -5.85472592150103     -1.60169895020907
  C   5.12219644920447     -5.07257685886133     -1.07086664761067
  N   4.05183450939792     -5.66315356023125     -0.73149404309873
  H   5.95206997352721     -3.59252551602036     -3.07912465711099
  H   4.55833378583847     -2.57811289719968     -2.72345637433146
  H   7.12648670772326     -1.67765231769971     -2.95308979719854
  H   5.23525709994453     -0.81223630718754      0.01733016863241
  H   8.56653553479595     -1.24951028055922      0.34081914964273
  H   10.46588115247553     -0.74630566682104     -1.59282514678281
  H   9.12028891941006     -3.76225731909381     -3.11304627457161
  H   7.77759057896036     -4.06637871800572     -0.37467217079196
  H   9.08072458513361     -6.23346200202656     -2.67132716103518
  H   5.85694007185818     -6.80439613880452     -1.80481816174567
  H   3.36306874002807     -4.99591435505294     -0.39674123546008
