29
Coordinates from ORCA-job 8398optt
  Br  6.67434244505258      1.60426956408283      4.91149077221317
  C   6.76469255089729      2.57055506291370      3.29780252486371
  C   6.41336994011738      3.84636759129506      3.17699606508899
  C   6.45020100719112      4.37645981981585      1.75831181270368
  N   7.61724245816127      3.87595704327678      1.02352028003870
  C   8.14684180236958      2.65598444755226      1.33175296014924
  N   7.38830470519051      1.92362772539875      2.22846944601882
  C   9.33562565723450      2.17488288922459      0.86445433533991
  C   10.20416770445157      1.39927182132145      1.77651134968611
  N   10.90481404720817      0.36254727315834      1.53842975401160
  N   10.24735126572645      1.96328882776517      3.06439769469526
  C   10.12238405671295      3.36160520873340      3.18089604315764
  C   9.33174774521506      4.00897982403860      4.04186350460128
  C   9.11576317769728      5.44211964837170      3.89153506420585
  C   7.99214397211174      6.12753464549071      4.15445244729918
  C   6.69917847040318      5.61945455527770      4.65637152483663
  N   6.00431012599349      4.62999969889717      4.26123508549628
  H   6.48921168300881      5.46381134953173      1.76090610837593
  H   5.53678763845993      4.07106081308769      1.24082737733346
  H   8.31031760617414      4.56522485800179      0.78234733606188
  H   7.69969378079667      0.97703263034052      2.38343763945685
  H   9.76556170605996      2.58152446047567     -0.04005797313185
  H   10.69139840175218      0.01067555739986      0.60955381674861
  H   10.78002375529880      1.44893186046268      3.75129327198128
  H   10.64330073201726      3.93880844506417      2.41932331794625
  H   8.74600216023413      3.46097274346768      4.76877243476129
  H   9.95031130245760      6.00968515827432      3.48887081458881
  H   8.02451687589466      7.20698140020043      4.03941459886337
  H   6.25439322611159      6.20838507707930      5.45982059260801
