23
Coordinates from ORCA-job 8401optt
  Br  1.25941716864313     -0.37200738132612      0.33322267341625
  C   3.09448560831273     -0.04106664621898      0.11836568996463
  C   3.57939964262486      1.25868652836823      0.08732250018536
  C   4.94425298136713      1.42108127813223     -0.03332478533433
  N   5.77867271184778      0.39602875993386     -0.14665067633394
  C   5.20807904631366     -0.80098268693378     -0.12866258323558
  N   3.90646074450317     -1.06844462353078      0.00429137397101
  C   5.44407698397969      2.85394022665248      0.00896702411171
  C   4.21591941826181      3.74968514508211     -0.23557524108011
  S   2.75012129748453      2.81581388796246      0.23978534625963
  O   1.72437635415164      2.96412692401698     -0.74764964008430
  O   2.45688767008403      3.04169780603944      1.62577032138918
  C   6.18098510679080      3.12362736456265      1.28796125223857
  C   7.51676978970801      3.34643925553714      1.42148704479590
  N   7.97110456000669      3.53807338109205      2.69578505093954
  C   6.99049460727909      3.45370409017876      3.53482087568564
  S   5.44786579637846      3.14165031603685      2.84530094802997
  H   5.86314529045212     -1.65865248892507     -0.22637567126766
  H   6.16261383376259      2.98249043580769     -0.80221007100184
  H   4.08960172694909      3.97503940813549     -1.29260606358626
  H   4.22138973718214      4.66622533675964      0.35038619766439
  H   8.21246903674430      3.37599499821312      0.59431181392873
  H   7.09941088717250      3.57384868442352      4.60327661934350
