20
Coordinates from ORCA-job 8402optt
  Br  1.66314136793584     -1.01996261790635      0.81485617013329
  C   3.42366045957520     -0.50348273888810      0.42997299009956
  C   3.74719485426185      0.79450326112228      0.15516782490849
  C   5.14266403701725      1.10073708632673     -0.10037023790258
  N   6.02527234773652      0.04594096568205     -0.05536355185313
  C   5.58098759580071     -1.18806024417661      0.20918874929691
  N   4.33620140616904     -1.49713636044844      0.45133044297241
  C   5.23690167095627      2.43915932450965     -0.33572877598177
  N   3.98044779276550      3.00219156174674     -0.24982138545401
  C   3.09702546001760      2.06477258739392      0.03366624570141
  N   1.74484956314203      2.28744265425217      0.17562685534787
  C   1.33202975900751      3.46971666001638      0.00913248104154
  O   -0.00105110267463      3.74417045032327      0.12793812669813
  C   -0.24508776250536      5.05622244869972     -0.09770658687546
  N   0.70533584567751      5.83930376624364     -0.37030876811548
  S   2.16238382416619      4.96807083064049     -0.38296859595608
  H   7.00939140803825      0.19164162791465     -0.22512291448396
  H   6.32616518627165     -1.97373009553012      0.22062000199549
  H   6.10517369357234      3.03649643425461     -0.56024766645632
  H   -1.28668740693128      5.33500239782330     -0.02386140511632
