24
Coordinates from ORCA-job 8403optt
  Br  1.34297380142543     -1.59768961360241      0.80336723820629
  C   3.16382717216718     -1.49277079916189      0.38144361631957
  C   3.68244141430445     -1.32209480992575     -0.86976318818834
  C   4.94284651048246     -0.58605699863305     -0.85712046724672
  N   5.76255393926920     -0.56612264998164      0.14007636054757
  C   5.38184315049690     -1.53549843626409      1.05665060901556
  N   4.02675886855137     -1.46858999409525      1.41668002526663
  C   6.11733159920802     -2.66943934034915      1.18536848033932
  N   5.38608607709868     -3.81996739601818      0.99260660223877
  C   5.93978916138821     -4.80381533719006      0.39608797349819
  C   5.16401921534669     -5.76254532486797     -0.41969614121025
  N   4.11534093320207     -5.51521201443626     -1.08928842050572
  C   3.41124193054889     -4.30192846114377     -0.98015065049402
  O   2.61493842955827     -4.09822291058246     -0.10428539462549
  N   3.63653380861486     -3.43515403801724     -2.04106711247886
  C   3.27243709516460     -2.06067241971152     -2.09536055342026
  N   2.90130908316210     -1.59675641187332     -3.20907879568915
  H   5.18765928928680      0.01952022783122     -1.72697025291298
  H   3.71720065393911     -1.68633856428894      2.35082771311283
  H   7.17765886810587     -2.63154006660767      0.94627432277944
  H   7.02692779781412     -4.88004978120767      0.27718151397039
  H   5.61840214461435     -6.74167975435657     -0.57177846533671
  H   3.89120331467761     -3.84562584590919     -2.92853828546713
  H   2.77067574157265     -0.58974925960711     -3.14746672771893
