25
Coordinates from ORCA-job 8410optt
  Br  1.35506774038583     -0.25704606985045      0.47635147763822
  C   3.20582068896992      0.11764426736572      0.42417086964019
  C   3.65980209203922      1.43358753344364      0.45972919173041
  C   5.03917066107098      1.58353271397291      0.35031421024975
  N   5.86842768586492      0.55196193543534      0.24337170509346
  C   5.31130196597099     -0.65141458314583      0.23257268627155
  N   4.01158023428935     -0.91574074043050      0.31279255175761
  C   5.65830077965404      2.96904934647086      0.38819467998569
  O   5.24536733255879      3.66504987374402      1.55416964130150
  C   5.72063337238918      3.17427188625794      2.73941984464864
  N   5.30538404081403      3.53352422040673      3.85957053472082
  C   5.18269113747361      3.76707784122986     -0.83323228872507
  O   5.81719771316348      3.72165730210880     -1.84993440486732
  C   3.88080290186033      4.51919624106545     -0.69832316391746
  C   2.66805175572558      3.57268212144758     -0.57354209153491
  C   2.73832937940279      2.62490500797262      0.60490493920331
  O   2.08534409190828      2.76937232338827      1.59934146498775
  H   5.97608733621104     -1.50316747540439      0.15248386347938
  H   6.74293865460703      2.86776095132346      0.33354643740383
  H   6.51824413479517      2.43886002855404      2.63085402388968
  H   4.54396033018802      4.20886443860940      3.78128720370337
  H   3.76720380069156      5.13278337988119     -1.58948046432914
  H   3.92285799959127      5.15916889710973      0.18338482356638
  H   2.58387609913816      2.97764586971315     -1.48724662975647
  H   1.76455807123636      4.16777268933042     -0.45370110614118
