20
Coordinates from ORCA-job 8412optt
  Br  1.15307937511913      0.14825167327508      0.42163310086056
  C   3.02903376652078      0.08784849944982      0.26034001233013
  C   3.74790951072103      1.25208601727261      0.05733434490341
  C   5.10687367599576      1.12075125400210     -0.04974033533622
  N   5.76535046764874     -0.02212264532181      0.02706269807033
  C   4.97714710413243     -1.07333224175905      0.22062336481807
  N   3.64314222687804     -1.06824069234661      0.34284026733332
  C   5.68349891596113      2.49499041743529     -0.24549778314127
  O   6.80033751211504      2.84858002099986     -0.37682042188729
  O   4.61097749118990      3.36071965152569     -0.24090211988429
  C   3.37820292392857      2.69233088880125     -0.09605500042471
  O   2.66989284772398      3.20379556094181      1.00138599147737
  C   1.49672838888265      3.78663749069421      0.59574461904920
  N   0.62950489726969      4.31265178738344      1.31886608413713
  N   1.42433940338218      3.67517701900895     -0.78551612510735
  C   2.47709266634275      2.99548651316154     -1.31576439289596
  O   2.69856879015298      2.68482871367124     -2.44651791010565
  H   5.45564716843977     -2.04229584560768      0.29140993767058
  H   0.88774498827164      4.28146283242847      2.30089222751499
  H   0.63392787932375      4.02239308498375     -1.30631855938237
