23
Coordinates from ORCA-job 8416optt
  Br  2.07123056926924      1.25967399230571     -2.21841735282888
  C   3.42038056854510      0.55050407727691     -1.11074992656845
  C   3.37587722841926     -0.76761010152512     -0.66690416146941
  C   4.51979644251813     -1.20501427605682      0.03373154926509
  N   5.50877340686943     -0.37623278840664      0.35244841879124
  C   5.38815670525588      0.86816608658337     -0.06893845758615
  N   4.40944743890804      1.36951833071502     -0.81808117159957
  N   4.63984358663683     -2.51550135693705      0.40141242809141
  C   3.69453286650227     -3.59764019652788      0.11649962330312
  C   4.33631608133981     -4.39434404032751      1.27664137348710
  C   5.23437886206201     -3.17647475807854      1.49514907566641
  N   6.11516157279167     -2.77717807930840      2.28589647173072
  C   2.27198613510803     -3.11645910577951      0.27256411682724
  S   1.97441860052817     -1.83941458442236     -0.94072947443154
  O   0.76858991427477     -1.16009258621993     -0.57414312787361
  O   2.11058836177342     -2.43795197987324     -2.23803780576846
  H   6.18209609597976      1.55316725882929      0.20620742956624
  H   3.84558145834663     -4.02693895416444     -0.87466712507481
  H   4.85945119588288     -5.29982538530884      0.97954300835524
  H   3.66999785512781     -4.59871494387684      2.11273177685898
  H   6.32037766962201     -3.48483468260999      2.98754379033466
  H   2.08460314679701     -2.68537287926700      1.25724026177273
  H   1.53041423744181     -3.88342904702016      0.04705927915069
