24
Coordinates from ORCA-job 8424optt
  Br  2.02090061734801      1.71675146759226      2.69812793643626
  C   3.25374383425176      1.28511606135405      1.33934348673091
  C   3.94833406483126      2.24186987312451      0.64310760278073
  C   5.01310229055934      1.79316132196972     -0.23257759476727
  N   5.03787857221015      0.40650375576106     -0.38493990944294
  C   4.25807022256605     -0.43692460539905      0.30151099697183
  N   3.39314961306963     -0.05572175636135      1.18025597126379
  N   5.91615926383285      2.40111428477613     -0.91161622221614
  C   6.28807465895349      3.73578390831365     -0.84773592186718
  N   7.07099882493149      4.24590206079934     -1.71349786429147
  C   5.89804656407989      4.64929970514034      0.24953567561746
  C   4.76063036149271      4.64233692257020      0.93421624470982
  O   4.48892150471379      5.63587722751364      1.85175456627596
  C   4.15360540423903      6.88806505131201      1.39813093179751
  N   4.05262415945816      7.30796748056667      0.22591187448298
  C   3.63480179578130      3.68961427137300      0.74826541660577
  N   2.42601884212528      4.05519748485129      0.69168589277894
  H   5.74045712047893      0.06689341339078     -1.02890752488910
  H   4.38644652733024     -1.49323644841190      0.09505747578596
  H   7.28758061262751      3.54737069467134     -2.42455329467671
  H   6.58803792886117      5.46996655110084      0.40538072623327
  H   3.95238986601372      7.51980058654390      2.25735455421241
  H   4.28843506310669      6.61207149106952     -0.48265953197577
  H   2.32959228713748      5.06421919637801      0.81684851144297
