22
Coordinates from ORCA-job 8428optt
  Br  1.25374919820858     -2.20844560831489      0.81939238292062
  C   2.96927664558766     -1.56123241509870      0.41879419653693
  C   3.93518960737330     -2.21980203349791     -0.26053096503610
  C   5.24508082827623     -1.54694740194719     -0.43279284228621
  N   5.44279931987599     -0.33584969566687      0.23921920380075
  C   4.46998417142523      0.21011114525198      0.84643970974081
  N   3.21151325882896     -0.32323793245509      0.93697962634853
  N   6.20837543204689     -1.95815145055925     -1.15787340246134
  C   6.17957114552651     -3.15425124134237     -1.86574443772823
  O   6.37640197615788     -3.23142092461025     -3.04256619846328
  N   6.02487294851854     -4.32025681270361     -1.06415107468861
  C   4.87978803950467     -4.52743512156281     -0.57298443939022
  N   4.64309792587520     -5.67225306572165      0.16876260651795
  C   3.55405729988664     -5.93757352528819      0.96938044863546
  O   3.46354052812732     -6.93101106509524      1.63504264680364
  C   3.72621568315780     -3.58440936488923     -0.80736353953396
  N   2.68577911622343     -3.88236691500932     -1.45789189695768
  H   4.60099273900605      1.16307042196389      1.34871797389134
  H   2.48639154561648      0.15109311974516      1.45165999572396
  H   5.41052231923643     -6.33350467294032      0.21273832659512
  H   2.78012077424573     -5.15726885401675      0.93740128348582
  H   2.69067949729444     -4.86085658624135     -1.75262960445531
