25
Coordinates from ORCA-job 8431optt
  Br  0.95223493149803      0.10188304249455     -0.73052332909162
  C   2.75328627350511     -0.01362178219459     -0.20753770109976
  C   3.41109972308068     -1.16485263489552      0.04955009076399
  C   2.72717011874415     -2.50817532425875      0.04716930597623
  N   3.32117053718193     -3.53213606437514     -0.80738592261039
  C   4.40625749360973     -4.03438338757235     -0.41644396696600
  N   5.13886032925851     -3.52032353372883      0.67140221799452
  C   5.72846430752480     -2.18908627221721      0.58832368405713
  C   6.51143937631165     -2.18928867792749      1.90225775486839
  O   6.87786278381169     -3.55688649416811      2.07050989361609
  C   6.02207360508451     -4.34351732567037      1.36679857006343
  N   6.00217108213474     -5.59628232615445      1.32504483573879
  C   4.80353804402085     -1.00946454384906      0.40122485023037
  C   5.36414163626752      0.21535955155828      0.50106728748871
  C   4.61114572563379      1.42305276259068      0.26685898492978
  O   4.98478557437249      2.55132422353304      0.35262381580445
  O   3.28658360989428      1.20176690501457     -0.12130404176614
  H   1.69743343580046     -2.37947345175765     -0.26730949915262
  H   2.71804317800642     -2.88109394316490      1.07781845794166
  H   4.83536566061223     -4.90811635529032     -0.90069883473288
  H   6.43372653758033     -2.16536153009564     -0.25353252542338
  H   5.87696108094864     -1.87312060347455      2.73312080929962
  H   7.41682264034911     -1.58925069652853      1.87241424486037
  H   6.71883405482013     -5.99900513535322      1.92056275242828
  H   6.40952825994815      0.35905359748558      0.73798826478098
