21
Coordinates from ORCA-job 8432optt
  Br  1.17616853265349      0.11754880755926      0.07044375280558
  C   3.01537040417975     -0.13964651912127      0.06404186983827
  C   3.62634215682873     -1.32481016441528      0.06129576228756
  C   3.30241986533839     -2.73079383731547      0.06192355673207
  N   4.39320769105694     -3.43138680829161      0.05988387072275
  C   5.49541393053588     -2.57516115720438      0.05760699937885
  N   6.77819533032397     -3.11323003889589      0.05597937021913
  C   7.96478485216253     -2.42545956291624      0.05095565382634
  N   8.98766672361636     -3.22512723287525      0.05255315568593
  C   8.46039894777250     -4.50002434197029      0.05889905429885
  C   7.09306464147960     -4.44970146888540      0.06111598887868
  C   9.27164047102937     -5.66906449069234      0.06259140664098
  C   9.94230969371018     -6.66264342739944      0.06642679893404
  C   5.08122722580713     -1.28985276968692      0.05811692959817
  O   5.73803424592014     -0.11608364918757      0.05724798738757
  N   5.00123699951686      1.07056995208907      0.05927771763875
  N   3.77366612649428      1.04099382362346      0.06244298460021
  H   2.31782847867982     -3.17206951407055      0.06402077623453
  H   7.99667040963689     -1.34747535803136      0.04631538737443
  H   6.33539860254092     -5.21100568075861      0.06619398442605
  H   10.54395467071620     -7.53957656155390      0.06966699249125
