19
Coordinates from ORCA-job 8433optt
  Br  1.04261049483109     -0.13949336238057      0.08222992647939
  C   2.91192346718921     -0.07598088019512      0.06757867838817
  C   3.68273078246698     -1.16955449701433      0.06173831698072
  C   3.37596871408267     -2.59291093488641      0.06399186613596
  N   4.45421105602310     -3.29908673435476      0.06045276182419
  C   5.53884991109409     -2.40893640251760      0.05584545419411
  N   6.81563925445563     -2.94957705127849      0.05455904770179
  C   7.16275624911731     -4.25903006339290      0.05800805201111
  N   8.46583819294551     -4.37040912712922      0.05813209970851
  C   8.88423323017876     -3.07642133030849      0.05489305135354
  N   7.92434685652706     -2.18200106560999      0.05276898512476
  C   5.12805354251918     -1.12381964745947      0.05538360230679
  O   5.88469649181434      0.00951997270149      0.05188130743396
  C   5.37036908103628      1.24234699183313      0.05361532869282
  O   6.05233571473420      2.21034778344502      0.04921306719439
  S   3.58251632730508      1.52019112304180      0.06403347677968
  H   2.38740948815850     -3.02910066145359      0.06787623892747
  H   6.42873706610333     -5.04659028596160      0.06046886555138
  H   9.92277407941763     -2.78949382707890      0.05432987321125
