22
Coordinates from ORCA-job 8435optt
  Br  1.16141373347426      0.22548368593945      0.01840616809585
  C   3.03341570154713      0.05385758898977     -0.00521448788078
  C   3.61534976951788     -1.19090440398836     -0.01686637368794
  C   3.23944633545937     -2.56203678406971     -0.01862039738821
  N   4.30827072859595     -3.33751053638555     -0.02869000296384
  C   5.40465475653556     -2.53766822050212     -0.03364062602321
  N   6.72582438233792     -3.01689219156575     -0.03981806840592
  N   7.73019497219144     -2.13908584304127     -0.04767821406892
  C   8.81577561867936     -2.89566444909369     -0.04671756630885
  C   8.40945733907386     -4.23481758375063     -0.03798801791005
  C   9.20573815250090     -5.46688118345720     -0.03250434790204
  O   10.40847485750646     -5.46981533717610     -0.03271803580968
  N   7.07335530756054     -4.26957435603293     -0.03390457738136
  C   5.05682250451123     -1.21557338046500     -0.02766544188224
  N   5.72926238151893     -0.02837997556109     -0.02852512951808
  C   5.04407487425460      1.11504197035739     -0.01960796000799
  N   3.73238207155877      1.19369905921748     -0.00770773515719
  H   2.23952480916100     -2.96572898674770     -0.01322738120545
  H   9.80714087814674     -2.47753733599194     -0.05218013449259
  H   8.61511181138451     -6.39844318600305     -0.02796988686095
  H   6.74466425312949     -0.05797230484293     -0.03629401808998
  H   5.62464476135402      2.02840375417095     -0.02186776515058
