25
Coordinates from ORCA-job 8443optt
  Br  1.17364328933590      0.22960655573749     -0.06320686976030
  C   3.06748827991427      0.14842758363933     -0.01376337848440
  C   3.68397754529783     -1.08205669473258      0.02310374527934
  C   3.14851299827789     -2.48467281902974      0.03890760939123
  N   4.38194105270342     -3.26324907529559      0.06253386283818
  C   5.53532958501942     -2.52027952793755      0.08456051833536
  N   6.76500735138703     -2.84325721367310      0.12729339065193
  C   5.07966683488930     -1.11469611551192      0.04906906100419
  C   5.79363469670354      0.04745785225306      0.03464433190747
  C   7.24638421309012      0.39127997244432      0.05107630164377
  C   8.06243182214281     -0.18280172334772      1.20137436490190
  O   9.24122759347208      0.00328192465038      1.28184892064112
  C   7.21986548724399      1.93487007862230      0.10992251992086
  N   8.15912166747359      2.76100026071305      0.23004369620417
  N   5.88250400337703      2.31207034018664      0.01567889343056
  C   5.03626895138791      1.22976576107009      0.00834385223744
  N   3.71887739440552      1.30513033421398     -0.01794327444714
  H   2.54738554954172     -2.70148881320648     -0.84802976963056
  H   2.53104438725754     -2.67449971127067      0.92122587597788
  H   4.38604473659142     -4.26701315658621      0.10736964690467
  H   6.91165110212571     -3.85016279164530      0.14654143009053
  H   7.75428347749339      0.08364433202781     -0.86705041803639
  H   7.50473375970979     -0.75605052301325      1.95988219416934
  H   9.05423668197778      2.28303008666098      0.30988414197549
  H   5.58473753918094      3.27266308303070      0.07068935285334
