21
Coordinates from ORCA-job 8444optt
  Br  0.71183219805035     -0.02112130690562     -0.22217644811142
  C   2.55108035383262      0.19154264936909     -0.43327163471964
  C   3.44552061605362     -0.80636916844211     -0.33121708449302
  C   3.35762512795132     -2.20969980644400      0.10999999412819
  N   2.43462646944810     -3.06811057286185      0.19955246574105
  C   4.76619043788613     -2.48494640628706      0.53572118297378
  N   5.57597701216445     -1.50219631757472      0.39517292919536
  C   4.85207813199920     -0.45585539523353     -0.20274363176352
  C   5.23777697874298      0.80363400090958     -0.49972909936467
  C   4.21619713154682      1.70585856549177     -0.96412343717427
  O   2.89319530954455      1.46333835847845     -0.64310059240278
  C   4.68322504271030      2.92407878782319     -1.28835959431867
  O   4.36499013600497      4.03183752586792     -0.54577856637954
  N   5.12987587239834      3.93310383062873      0.62551580416722
  C   5.89335139497619      2.92460771088212      0.83688397970218
  C   6.33474707708039      1.58779696228112      0.15587072278449
  O   7.46984320417154      1.24069822316202      0.31081538009326
  H   1.53884395344457     -2.70496275795902     -0.12691152167702
  H   5.07622205546757     -3.43964977839203      0.94401325764512
  H   5.68379076046185      2.96120414510572     -1.71026287366470
  H   6.43601073606408      3.04721075010023      1.77112876763859
