22
Coordinates from ORCA-job 8450optt
  Br  1.05468836313932     -0.01948283182178     -0.69908082353106
  C   2.89504409247716     -0.05381746189480     -0.21643659529742
  C   3.56519517617404      1.19060949253089     -0.17260656373481
  C   2.95775024238959      2.46293702395343     -0.33488438924700
  N   3.62820880924487      3.57864267538404     -0.26624554013404
  C   4.96218640494402      3.47447431417623     -0.03143621410418
  N   5.64565679134758      2.38155101581933      0.13849888465272
  C   4.95717523868730      1.21021737022476      0.07322940458478
  C   5.65388526856962      0.00143895479727      0.19960665130015
  C   4.97834433002127     -1.19210484176627      0.14759579594865
  C   3.55441127278276     -1.24595509707343      0.01251943754343
  C   2.86116188056597     -2.56603672769543      0.13972690838137
  N   1.74074586374779     -2.76220231153219      0.70337193953203
  C   3.57076667669036     -3.74390918868604     -0.37250137730970
  C   4.89498070560402     -3.85727387760766     -0.34072669908268
  S   5.98521311725197     -2.62557385088717      0.21003255353575
  H   1.89153212521623      2.53584883832665     -0.51444475766793
  H   5.50415642537935      4.41236239594500      0.01875395164092
  H   6.73035615686834      0.03785913382976      0.30560446314236
  H   1.33957513723237     -1.90582868994559      1.07861610986084
  H   2.95411567920087     -4.58194268282576     -0.66977389682673
  H   5.39885024246517     -4.77281365325125     -0.62241924318745
