27
Coordinates from ORCA-job 8452optt
  Br  1.15909127076920     -0.08107498304511      0.42235861922162
  C   3.04629578849676     -0.07057447311104      0.22059752269471
  C   3.72373850813070     -1.27409042030230      0.12422235817913
  C   3.05452783068718     -2.62897776576253      0.15831766139628
  N   3.87877975030311     -3.73376906797275     -0.31148653841253
  C   5.12444818603563     -3.56738353600468     -0.39975152868701
  N   5.81244795997888     -2.39769416577626     -0.12381597093331
  C   5.11354102696747     -1.19988434747546     -0.00564376947338
  C   5.78033728396871      0.01664644196044     -0.05282934570082
  C   5.06522490933323      1.20366624905345      0.08060817728164
  C   3.68167057397664      1.16284861503384      0.21847405520370
  N   5.73635524446987      2.44507296038225      0.05337320945545
  C   5.05639264013161      3.63963949744911     -0.43479830331700
  C   4.31010725411924      4.34140333679281      0.61334668578586
  C   3.70297597229479      4.90281144691923      1.47825959936547
  C   6.96440965474359      2.62601567807424      0.63648263015256
  O   7.54900602927086      3.67912438300352      0.65440289802434
  H   2.14397223212916     -2.60859888620586     -0.44180338525913
  H   2.73021738819253     -2.85651527653072      1.18041422346577
  H   5.75757412981055     -4.39273318127316     -0.71491241007952
  H   6.78914104260631     -2.35643712347029     -0.36150095472175
  H   6.84782802247801      0.03241269430277     -0.22995588290774
  H   3.10796128814844      2.06825525227169      0.35251882088029
  H   4.38726843085808      3.34718118573867     -1.24386974905724
  H   5.82136696943462      4.30519513723521     -0.83386662244545
  H   3.17272368077156      5.40919252932178      2.24929190497985
  H   7.36259693189314      1.71226781939115      1.09856609490822
