26
Coordinates from ORCA-job 8454optt
  Br  1.25732523636226      0.20180583653614     -0.60652887713695
  C   3.15226797511832      0.19951521737200     -0.34262641657857
  C   3.77197383720257      1.39780525509949     -0.01281204893953
  C   3.01278442842794      2.68907865339692      0.13178775140978
  N   3.95144828970167      3.76672789669155      0.41053163087446
  C   5.26908996870443      3.57774921222038      0.61700548717756
  N   5.91129472069320      2.46958626138066      0.54245859320001
  C   5.15348280051143      1.34845799912447      0.19851826930954
  C   5.80198968118432      0.12181086582646      0.05661037898365
  C   5.06957848876461     -0.99876570496000     -0.28014227834362
  C   5.70816244324393     -2.35597966739919     -0.44987010485725
  N   5.76171808148439     -2.70545838978855     -1.85908835149684
  C   4.93395832447662     -3.54792896306047     -2.25675026751800
  O   4.93417236514811     -3.87080540631933     -3.59419158866605
  C   4.12783403119482     -4.87132719673535     -4.00824160156685
  O   3.43640543766729     -5.54642437625477     -3.31361496056069
  N   3.74769033746998     -0.95707564630115     -0.47903957542796
  H   2.27570983223069      2.60603196626923      0.93693108803718
  H   2.45670620066314      2.90474832492164     -0.78421804207730
  H   3.58650078812066      4.69767754417877      0.51194221520099
  H   5.82077836000252      4.48037620575589      0.86527695521859
  H   6.87086441623341      0.07416122113106      0.21290421272720
  H   5.13089170636954     -3.07988570145812      0.13579716388037
  H   6.72870441266016     -2.32840901911230     -0.07007285099645
  H   4.18504793835786     -4.07352153983365     -1.66700003248185
  H   4.21661989800600     -4.96695084868175     -5.09556674937141
