21
Coordinates from ORCA-job 8456optt
  Br  1.27343053274992     -0.49003649790290      0.28768570918792
  C   3.11663464975665     -0.15629085159952      0.13093032367028
  C   3.68216821151476      1.06783556383107      0.07047956514500
  C   5.13973090812402      1.06305053296917     -0.00061112037083
  N   5.85027462451928      2.24221733204651      0.01933717294561
  C   5.18240496181788      3.33491223570689      0.11836046015887
  N   3.84715595985023      3.47762291676793      0.16955967863307
  C   2.90801497047310      2.37436141241174      0.06135251257763
  C   2.10320889546956      2.52927850824172     -1.26153391299196
  C   1.51065481504733      3.86066215332997     -1.34389420619816
  N   1.10539040283463      4.93167153516323     -1.35268755309619
  C   1.98940765457283      2.47996769979631      1.22090696386789
  N   1.30191722459742      2.62586214393297      2.12424040900352
  N   5.83688290493436     -0.02775937349618     -0.06785526398562
  C   5.24376558439337     -1.24858356070757     -0.07283636890385
  O   5.74560352531883     -2.31233327082257     -0.18279802547813
  O   3.80432441259249     -1.26739462131511      0.09201357687836
  H   5.72896781963124      4.27249049338919      0.16936288440177
  H   3.45132269521312      4.40390710793973      0.24788652696888
  H   1.32539718782731      1.77063746171208     -1.32674630221059
  H   2.79934205876164      2.39292107860535     -2.09015303020348
