23
Coordinates from ORCA-job 8457optt
  Br  1.21859898748790      0.01225198619767      0.05279103147034
  C   3.08605679516472     -0.15451501904473      0.05275934187944
  C   3.74437653146004     -1.34268643429867      0.05125552384293
  C   3.13739086715560     -2.63806319356834      0.04966756119963
  N   3.82596652015728     -3.72337983200963      0.04820728140689
  C   5.22253155929003     -3.57947810220878      0.04809015768191
  N   5.89664406387625     -2.47594176267561      0.04963005108724
  C   5.19552811076829     -1.29283294402613      0.05138460104064
  C   5.83044217322773     -0.09465854162436      0.05317777668361
  C   5.09982244673610      1.14450574844259      0.05492294977389
  N   5.47496839508923      2.34403230586344      0.05693858153120
  O   3.68433876697746      1.00627103777539      0.05429516055531
  C   5.92928027835429     -4.83867596990707      0.04590035829447
  C   7.26749643309107     -5.16372833851325      0.04409044465111
  N   7.42652165179394     -6.51212961850191      0.04205258389920
  C   6.20737034566061     -7.01041216620362      0.04264561546728
  N   5.27116371122104     -6.04405196611195      0.04478789726708
  H   2.05405928404909     -2.72033476134767      0.04971275041815
  H   6.90965434594260     -0.05184551846829      0.05333789879761
  H   6.48863763232430      2.40076445503930      0.05729322012251
  H   8.10247014101184     -4.48337415470674      0.04414402689468
  H   5.95959092766025     -8.05964071993518      0.04148613004808
  H   4.26709003150028     -6.13307649016641      0.04542905598680
