26
Coordinates from ORCA-job 8460optt
  Br  1.00877432261534     -0.39521458253461     -0.10546130095840
  C   2.85876952840464     -0.14332711169627     -0.28982364186282
  C   3.76251891013030     -1.08813330814935      0.02305921005195
  C   3.59298918885845     -2.47729135261014      0.56140919110901
  N   4.97799219932400     -2.89443994819272      0.69179071329880
  C   5.91721533556565     -1.98985334328835      0.25734174892985
  N   7.18009507684285     -2.10614842550007      0.17244022065717
  C   5.14166879531400     -0.77769765420508     -0.14451765382751
  C   5.59223305308870      0.41769737636274     -0.59781284701115
  C   7.04561402588132      0.76048585298646     -0.70336950403760
  O   7.57029206031998      0.85941507966705      0.61336957421163
  C   8.94100631019079      0.57864803269402      0.64487401872398
  C   9.39879912575222      0.58278466681686      2.03809990850069
  N   9.79217898371986      0.57264191344187      3.11292699309266
  C   4.61345431533783      1.44054260542694     -0.95511364493609
  O   4.85629653039141      2.54693065772033     -1.39028495087964
  N   3.27468622786137      1.05855557310352     -0.76297301363511
  H   3.03589554168972     -3.11636380097905     -0.13030861595048
  H   3.07337134106222     -2.48252211048223      1.52344278952778
  H   5.23252707054407     -3.82577338162482      0.97042066658153
  H   7.49783326278254     -3.02439706509495      0.47712619055397
  H   7.16089392820136      1.71161638082076     -1.22769812223502
  H   7.56577634400945     -0.03251333768629     -1.24761053849993
  H   9.52203496685605      1.32498659061753      0.08974990980836
  H   9.13438623288748     -0.41391871082290      0.22347172004109
  H   2.59669732236822      1.77028940320877     -1.00054902125471
