24
Coordinates from ORCA-job 8463optt
  Br  0.97994922021565     -0.21087213371626     -0.07203103606689
  C   2.84564600413670     -0.07724024947265     -0.21340770774955
  C   3.66634813822394     -1.12783062254321     -0.03129086825006
  C   3.39989902506152     -2.56973613579282      0.28845905103807
  N   4.75484552968978     -3.09519069273196      0.36868305457001
  C   5.75725604624218     -2.19613420923105      0.08938334973693
  N   7.01673853949442     -2.32472176572338      0.03342679396234
  C   5.06229606518850     -0.90368874922139     -0.15872670833586
  C   5.60144588874830      0.29440802614326     -0.46806555106016
  C   7.07170121352356      0.49488739478703     -0.66658748356131
  O   7.60662587528864      0.52176963269258     -1.72820575071682
  O   7.69516558632516      0.67489275206780      0.52332005571834
  C   9.07131651358624      0.57469066917026      0.55187300766319
  N   9.74111049563418      0.86670634589521      1.56383435895921
  C   4.72976677805272      1.44373978928044     -0.66008225243439
  O   5.07683736356441      2.57451065086000     -0.91130858098866
  N   3.36084888947710      1.14343952145337     -0.51075612675871
  H   2.81922570310523     -3.05865315053014     -0.49917353029067
  H   2.86287139221359     -2.68702467787766      1.23339692179320
  H   4.94127315885717     -4.07362850234829      0.50129378942601
  H   7.33073663440000     -3.27269959296399      0.22856034672285
  H   9.50174994478573      0.19922006001066     -0.36920250347214
  H   9.14385156384499      1.20803627855828      2.31771407887920
  H   2.74349443034024      1.93411936123393     -0.64110670878416
