25
Coordinates from ORCA-job 8467optt
  Br  0.97824174689884     -0.12804397977556      0.18884543389444
  C   2.84891783752251     -0.11044939411697     -0.00986911187592
  C   3.54188566557773      1.04147202304664      0.04553392944381
  C   2.85601369401723      2.35972164700622      0.27739338511632
  N   3.80867105233366      3.44998232993345      0.26359796097087
  C   5.13297487720365      3.28997507602363      0.01556287288041
  N   5.74793897253096      2.18858736551097     -0.17797716434104
  C   4.97979458217300      1.02040657730649     -0.13841614712730
  C   5.59632105871311     -0.17017368238845     -0.23806002574011
  N   4.88826453507001     -1.36812133346436     -0.19838380659148
  C   5.68112735174402     -2.53085510879798     -0.00458924699404
  O   6.84547388088162     -2.55543236491829     -0.29438740807997
  N   5.03545639674216     -3.58524507333956      0.60651901134326
  C   5.66958084967557     -4.79581031393653      0.85749041389438
  O   5.12100916422143     -5.68836312431045      1.43739191782155
  C   3.47561141837411     -1.39935528575442     -0.31671148193403
  N   2.77383166993873     -2.40133138808040     -0.66568666558547
  H   2.32646760664002      2.32226556054879      1.23433391160418
  H   2.09383877584150      2.50156643990621     -0.49543021107346
  H   3.45674759274185      4.38401383696565      0.37449122854116
  H   5.70185939494666      4.21495561786156     -0.00492504607950
  H   6.66740050728153     -0.26327065927346     -0.31949385058641
  H   4.08373675883952     -3.49042340011611      0.93912513265474
  H   6.69293022678730     -4.83171703661148      0.46863950211707
  H   3.32490438330324     -3.19635432922557     -0.97199453427345
