18
Coordinates from ORCA-job 8470optt
  Br  1.16047826885587      0.02569794671368     -0.02390356047334
  C   3.04273344581390      0.06461649130620     -0.03736248785542
  C   3.74180702950431     -1.09257591861298     -0.03639859111770
  C   3.01770899832609     -2.42619861231186     -0.02748698884766
  N   3.81578864946388     -3.63008813373997     -0.02685194278854
  C   5.07031704851721     -3.52980376970114     -0.03202559207960
  N   5.79069729438696     -2.35095900994756     -0.03932432590284
  C   5.19028114762600     -1.10977518548822     -0.04351415773749
  C   5.94694128285002      0.02102633602090     -0.05288493628466
  S   5.33498675143510      1.64318613594028     -0.05908624481459
  C   3.57667961883495      1.43842216583149     -0.04897445889879
  O   2.90480342716437      2.43358397446396     -0.05204727009714
  C   7.36324837495341     -0.10456460919544     -0.05787395793995
  N   8.49898482298948     -0.28284606730810     -0.06054175310749
  H   2.34722222906229     -2.45811331215109     -0.89162829804216
  H   2.35565846437835     -2.45169499613118      0.84332276797061
  H   5.68986577093411     -4.42170421832817     -0.03108378043399
  H   6.79879737490364     -2.39620921736079     -0.04333442154924
