20
Coordinates from ORCA-job 8473optt
  Br  1.30148577404310     -0.23998608791682     -0.51606795065841
  C   3.16966938844657     -0.07671168142021     -0.24358615385506
  C   3.74543626729235      1.17186494279020     -0.07480009548698
  C   2.98920244654767      2.47226303007636     -0.02793192704021
  N   3.89874508938706      3.55372499376349     -0.33718667262580
  C   5.20161228017163      3.44365493563661      0.01826777246883
  N   5.85114543190923      2.36233203400142      0.25620048825559
  C   5.13894013728364      1.18318864702870      0.10769115669993
  N   5.84593216561836      0.05440580140574      0.12298757456244
  C   5.16545523560828     -1.06455599649864     -0.04439814438862
  N   3.85533713646811     -1.19841039881933     -0.23334639851252
  C   5.92686664294685     -2.30140660843954     -0.02321219175637
  N   6.51561885039215     -3.28290444789295     -0.00820020431912
  C   5.91612507922683      4.70739195552870      0.07249206834666
  N   6.42358066893847      5.73286527011275      0.09895232642448
  C   2.36677221622406      2.67234288675791      1.36467973112412
  O   2.56717471390699      3.65675311901211      2.00870902254154
  H   2.17308820977535      2.45287011248639     -0.75525674141340
  H   3.50910412975237      4.48542849763362     -0.34579816567519
  H   1.73170813606085      1.84288899475347      1.72180450530811
