24
Coordinates from ORCA-job 8474optt
  Br  1.21260972332711      0.20125139783073     -0.11361343501696
  C   3.06622666227567     -0.08303146614840     -0.06791807763499
  C   3.59436318692549     -1.32138709769849      0.01698142382453
  C   2.81314683063294     -2.61177975834591      0.09084830456950
  N   3.62181517205680     -3.81804566779055      0.11193340370630
  C   4.87760892737952     -3.72720913853373      0.11995291877046
  N   5.62046183232294     -2.55247933637310      0.10283528637274
  C   5.02915850713950     -1.32595034333357      0.03126017796195
  N   5.80213250637900     -0.28200719821404     -0.02265774303270
  C   5.24202446055074      0.95518146741555     -0.10031880220404
  N   3.84233056137463      1.01957461974895     -0.12253170691493
  N   5.83006425690555      2.09611935070372     -0.16565097290812
  C   7.18184383068159      2.26331758287473     -0.14696695593419
  C   7.88547351840493      3.42568853722066     -0.28718983178977
  C   9.22927950108298      3.01202846780528     -0.16883455085153
  N   9.33330866730231      1.72794138115587      0.02473125887376
  O   8.04312067617530      1.24613204355204      0.03877812598651
  H   2.12690879308162     -2.68461710593683     -0.75732965007018
  H   2.18154908502797     -2.61940889068105      0.98455972961930
  H   5.48418983716846     -4.62784207082824      0.13977677219019
  H   6.62930327395401     -2.57273917706728      0.10109753280473
  H   3.43944489274000      1.94349900828739     -0.18291158404604
  H   7.48129898055930      4.40836431822425     -0.44509957570161
  H   10.13033631655158      3.60439907613202     -0.21473204857492
