24
Coordinates from ORCA-job 8478optt
  Br  1.11491953597649     -0.43553815298941     -0.02697456351293
  C   2.98454226846326     -0.28042359315639     -0.04130044619385
  C   3.81453140963434     -1.33922591313322     -0.04167656834498
  C   3.58984605152225     -2.81201445318743     -0.03508306600821
  N   4.95602933224172     -3.32286668123583     -0.03613983581079
  C   5.95504878347659     -2.33733977532812     -0.04401104062088
  N   7.21073197429712     -2.41679438549822     -0.04647876125557
  C   5.20373060467744     -1.03660504508919     -0.04926614530825
  N   5.75290674725949      0.12786218469300     -0.05901289291699
  C   4.91602748086152      1.23031026338488     -0.06351559026162
  O   5.27290575978478      2.37676433124365     -0.07693729429101
  N   3.51572043368388      0.95705032569689     -0.05122439717000
  C   5.11816416050688     -4.68664216105144     -0.03423348492792
  C   4.19744444635276     -5.68816514638703     -0.03513068684857
  C   4.96134085452555     -6.90103139933372     -0.03199595706930
  C   6.25957819310321     -6.54337683761088     -0.02916119552992
  O   6.36927874899485     -5.17938892629657     -0.03055287846311
  H   3.04750290297123     -3.16169279735558     -0.91952175305269
  H   3.05111338221793     -3.15532206173090      0.85396707089464
  H   7.54608164349107     -3.37483209259372     -0.04155651105257
  H   2.92227803815165      1.77502444088886     -0.05265957519208
  H   3.12687669184420     -5.58371967081427     -0.03825915454575
  H   4.58007914788699     -7.90744957815619     -0.03200406880685
  H   7.18732140807478     -7.08558287495915     -0.02627120371081
