23
Coordinates from ORCA-job 8479optt
  Br  1.24966173571929     -0.42755997734947     -0.70613429195467
  C   3.06686833103223     -0.08647181250927     -0.36527586235172
  C   3.55367723662948      1.14614330608588     -0.15175503937275
  C   2.70187191502815      2.38619188886066     -0.07834261054274
  N   3.58641291908169      3.53756101598188     -0.28053097018378
  C   4.89423678003138      3.47984602779245      0.00459799381329
  N   5.60848813461641      2.42402857985833      0.21819111235852
  C   4.98414095099467      1.20534087970438      0.08081293106566
  N   5.73401999044390      0.14377117092882      0.14730724507066
  C   5.20821527896038     -1.09612862643833     -0.02610342720858
  O   5.75987971439255     -2.14301826294920      0.03803996528862
  O   3.80044104478055     -1.17378542489068     -0.34708912493319
  C   1.96373462296068      2.50467467677012      1.22468924972668
  C   2.38891590866019      2.10457891971919      2.47210688667245
  N   1.42152183148272      2.47275628395610      3.33195482245834
  N   0.39121268946468      3.07937498105620      2.74149780155097
  C   0.70991475556358      3.10653301583952      1.46031305697181
  H   1.97470665372197      2.37714596827578     -0.89269517258578
  H   3.15186843351017      4.44582195562350     -0.31573130451463
  H   5.39609212660162      4.44364306864604      0.03397763485196
  H   3.28079624080376      1.59137240996959      2.79407097119333
  H   1.39598706233593      2.32221590682503      4.32645291245547
  H   0.02733564318393      3.53896404824344      0.74464522017006
