27
Coordinates from ORCA-job 8482optt
  Br  1.05822738118148     -0.41951004343676     -0.48062436571563
  C   2.90183638174783     -0.22596833565600     -0.23688139569790
  C   3.48166872062879      0.94993074101081      0.02873110719630
  C   2.91877177365276      2.32874980816123      0.23031056447105
  N   4.11918320345018      3.14472647539404      0.27798562010668
  C   5.29978921852139      2.43299978957928      0.42342886548054
  N   6.47499234185798      2.82910439223296      0.66974273887070
  C   4.90670017229488      1.02035790389753      0.18148057018646
  N   5.69191818879994      0.01035107226489      0.09608792961439
  N   5.09393311157926     -1.15569593680059     -0.14849412675122
  C   3.73691811603904     -1.42724395991648     -0.34824456691045
  N   3.25161457336989     -2.57649270567115     -0.59686637963889
  C   2.11848251393010      2.43570709199162      1.53077958495925
  O   2.85259022041515      1.88763461618741      2.58482505998579
  C   2.45909487941222      2.60595283010984      3.73953983820504
  C   2.29595415349565      4.01955909675944      3.19516514183001
  O   1.91246399638725      3.80241287663319      1.84008005323244
  H   2.26269627567941      2.62065482958077     -0.59421835544194
  H   4.04041854025296      4.08613770767798      0.62835638535915
  H   6.51732799006506      3.83904505909383      0.79382489064737
  H   5.73363212641663     -1.93307438584402     -0.21139698574546
  H   3.96389080583946     -3.30165909478338     -0.63955967556450
  H   1.14708998458586      1.93752347073460      1.42935845535583
  H   3.23606399730479      2.50444663203771      4.49278370746359
  H   1.51238755704858      2.21494100189848      4.12597164160503
  H   3.23846663307735      4.57145186314512      3.22538397011743
  H   1.51988714296606      4.59095720371764      3.70244972677892
