21
Coordinates from ORCA-job 8483optt
  Br  1.04092270706559     -0.06434305017566      0.11130843877624
  C   2.90101369070828     -0.07128979154623      0.02438740011448
  C   3.64625020067845     -1.20071249227985     -0.03327164279285
  C   3.14211668320926     -2.56189270832256     -0.05093287564351
  N   3.91970514317883     -3.57856440719981     -0.07465367771119
  C   5.29503311422069     -3.33059825720832     -0.08089457212331
  N   5.88479948082488     -2.19461715899111     -0.08131505138247
  C   5.08019132934117     -1.07327193294761     -0.06677408932858
  N   5.68062169882269      0.07308472397443     -0.08680843820851
  N   4.94421107081773      1.18833670428478     -0.07397573728167
  C   5.71995277878683      2.41595575748355     -0.19068651446582
  O   5.22173437241422      3.45774333897130     -0.47713788099719
  N   7.05547426815060      2.21441074860254      0.05380559207456
  C   7.97337771233187      3.25583210452209      0.00131433594843
  O   9.14179342053098      3.07966017009026      0.18966182382766
  C   3.52976887864893      1.26056742806527      0.06027915048510
  O   2.92601750466647      2.28414887752901      0.20243228521473
  H   2.06869681763648     -2.72508100100972     -0.04406023809438
  H   5.90935405832950     -4.22357628133673     -0.08789491497884
  H   7.39839183875212      1.27838772979222      0.22519612299075
  H   7.51157323088438      4.22481949770217     -0.21897951642362
