21
Coordinates from ORCA-job 8489optt
  Br  1.33466790176137      0.02675602406671     -0.11047671153322
  C   3.19985805024437     -0.10220084695488     -0.07380855807662
  C   3.89550368802557     -1.24937936035388     -0.05134542569527
  C   3.78081657140494     -2.73808002801888     -0.04313257197252
  N   2.79542895632824     -3.51742794574376     -0.04363083728279
  C   5.24148865327681     -3.30219272995915     -0.02974683930694
  N   5.53601148292350     -4.52361542541810     -0.02061072401423
  C   6.12091216512482     -2.11627980432163     -0.03039802271057
  C   5.28947555694592     -1.04758634650715     -0.03976776213758
  N   5.97649275676239      0.09956809220965     -0.04643873564997
  N   7.30972819598731     -0.15184322125449     -0.04194807974086
  C   7.40737604538946     -1.48465180152089     -0.03282578631918
  C   8.68362079317959     -2.11335981266342     -0.03063434810999
  C   9.73275919301797     -2.68863130218617     -0.02881609540519
  C   5.28568384847260      1.31823309035345     -0.06338139410133
  O   5.76808764011722      2.40727336920900     -0.06828457967417
  N   3.89142625525226      1.10095639577352     -0.07506688605571
  H   1.90179448591889     -3.02654575688681     -0.05157413220272
  H   4.67321540068745     -5.07622673787493     -0.02338675999578
  H   10.66625791306236     -3.19948189886994     -0.02800509813815
  H   3.36439444611690      1.96271604692174     -0.08972065187723
