23
Coordinates from ORCA-job 8494optt
  Br  -0.10284826969459      0.52629968671797     -3.01814601389363
  C   0.98246902810762     -0.21557144084918     -4.35376075191850
  C   2.32719048869253     -0.20803005547433     -4.32739478426620
  C   3.21999847037668      0.61270831382399     -3.44061559560518
  N   3.89798952991518      1.59821609781423     -3.86893581472657
  C   3.60754925340536      2.02166880600296     -5.16501969765261
  N   4.38404443096203      1.96652410719212     -6.17341414701294
  C   3.57774545407640      2.01425187503074     -7.32991224241833
  C   3.13007216044227      0.88003123982604     -7.91279187413526
  C   1.71888856625019      1.09509278821608     -8.11232994331042
  C   1.53585687827259      2.44122053205576     -7.94895661191081
  O   2.66683270299098      3.02397933170570     -7.47993387405249
  C   0.70577790988167      0.25634554989755     -7.44912145571304
  C   1.05697848877855     -0.66245972053935     -6.54140765370477
  O   0.28982303664358     -0.80965537162385     -5.36595991436056
  C   2.37531331902459     -1.28730438971520     -6.32269448185397
  N   2.99861110585117     -1.04061750542711     -5.24028088435775
  H   3.34160350960874      0.32415945431823     -2.39883446690655
  H   2.57382711878296      2.37335839147595     -5.26002425622660
  H   3.66261678666112     -0.04981451887212     -7.86943245670315
  H   0.66036334942893      3.06629877327410     -7.99732319995106
  H   -0.28736069636959      0.68261941379327     -7.35696942325264
  H   2.81565737791100     -1.96632135864356     -7.04574045606686
