26
Coordinates from ORCA-job 8495optt
  Br  1.01934881683566     -0.07156110002392     -0.35605297799573
  C   2.88939319884319     -0.06866523256120     -0.48164673726638
  C   3.62523244217099     -1.16003084597963     -0.28765754563445
  C   3.29230523064817     -2.55060889656008     -0.00390004236176
  N   4.32597192100230     -3.27727801767992      0.17831863666353
  C   5.47409804887395     -2.45240558353044      0.06302297571542
  N   6.63595893563750     -2.89468205075343      0.21569462742497
  C   7.81437075202071     -2.08310642545123      0.03250028840179
  C   8.37766286919129     -1.57998701751052      1.37602114316952
  C   9.82575433290575     -1.22255097225124      1.05366550253866
  C   10.22333611477113     -2.19498371336331     -0.05219579298504
  O   11.33568922796209     -2.36255107371629     -0.46763996862338
  C   8.97010953079791     -2.90646900896177     -0.53819500328962
  N   5.03154875756785     -1.13248413504627     -0.28667874519278
  N   5.68462410961037     -0.04777172530731      0.25663530355310
  C   5.17017804024017      1.09312625516348      0.08949051269539
  S   3.68119465849689      1.46536865585752     -0.80593442162245
  H   2.28346094172592     -2.94122561830333      0.02278066328161
  H   7.62608325577069     -1.21947205420308     -0.61404175755916
  H   8.33433982200292     -2.40627859393748      2.08901269854308
  H   7.78769381653605     -0.75512607547360      1.76835824359895
  H   10.51883518117663     -1.28367944079423      1.89083311291033
  H   9.90420340941145     -0.21513688175837      0.63395319146814
  H   8.95133219817890     -3.90172494444052     -0.08229777260278
  H   8.96873330800228     -3.02977976023372     -1.61926027440704
  H   5.67054107961912      1.94406425681989      0.53421413957607
