16
Coordinates from ORCA-job 84optt
  C   -4.12050053887450      0.67511570967689     -0.08383714966313
  C   -2.91661419682964     -0.20124027448858     -0.09592079850300
  C   -1.69826035367399      0.34012523475455     -0.07987841094850
  C   -0.47811460901315     -0.44195796571069     -0.09246165614507
  C   0.73725504695090      0.10609870085398     -0.08087785533933
  C   1.93934335236239     -0.75779232299877     -0.09704473044629
  H   -3.04298366827335     -1.27901325459230     -0.11860958236530
  H   -1.62033387727341      1.42292502426089     -0.05710963647494
  H   -0.55591963642884     -1.52489277631121     -0.11353812439489
  H   0.88880759673575      1.17778768679285     -0.06096809605649
  O   -5.31004397337962      0.03794013240582     -0.09601556778427
  H   -5.19481266230947     -0.91822426376241     -0.11068114088949
  O   -4.07815412777980      1.86879688347737     -0.06508792809791
  O   3.06946536721882     -0.02934836038440     -0.09631004092065
  H   3.81255190448133     -0.64996114367098     -0.10753681025715
  O   1.93631437608659     -1.95835901030301     -0.11012247171360
