25
Coordinates from ORCA-job 8501optt
  Br  1.03909580226581      0.26940674577719      0.28027991026954
  C   2.93551499280585      0.13289709317665      0.23452865840893
  C   3.58131419328141     -1.04881560071809      0.27878728830552
  C   2.86550851042269     -2.37626416391286      0.38464755691347
  N   3.00153255104657     -3.18804648635184     -0.80886349997106
  C   4.09830463732300     -3.97191549347363     -1.07789346715108
  N   4.16509055415228     -4.90517336483577     -1.94589890013768
  C   5.28924146704963     -3.65986221014095     -0.26828999619846
  C   6.27668659584409     -4.56956053494092      0.00421668533127
  N   7.24522611227673     -3.93437180443750      0.71788714808146
  C   6.91355119260540     -2.62846169870838      0.90149904979905
  C   5.69458804067514     -2.40712832231677      0.29929804611999
  C   5.03735179250863     -1.09466401923837      0.22616077553251
  C   5.83075968198353      0.00366217797497      0.12711012418641
  C   5.40889457633499      1.38136630042515      0.10170474136834
  O   6.13600239147682      2.34123190496883      0.04532774181496
  S   3.64267548635039      1.70004107202975      0.13492201053289
  H   1.80745292086977     -2.22211944271473      0.56662504176444
  H   3.26728705234386     -2.91858039571558      1.24357997262314
  H   2.18287643631101     -3.33047780918291     -1.37616724152815
  H   3.26785253645495     -5.05934665864747     -2.40332521717378
  H   6.34355843829518     -5.60545812767422     -0.27856953477498
  H   8.07372459976660     -4.37232088139835      1.08147480175690
  H   7.54092852242767     -1.95914648309191      1.46530460572237
  H   6.90298091512793     -0.11689179685227      0.03865369840398
