29
Coordinates from ORCA-job 8505optt
  Br  1.46341853196880      0.32462284924239      0.84391512449271
  C   3.26396380393696     -0.13348535250232      0.55704094645199
  C   3.68824318536758     -1.42191211563123      0.44054187269782
  C   2.73200306125651     -2.59561176301284      0.60297645586157
  N   2.26852960395127     -2.65061872633699      1.97854298944214
  C   1.05124524356142     -3.20119947239588      2.30068267716754
  N   0.26389454902043     -3.88276202855263      1.57737030481652
  C   3.38363736569000     -3.93140298273576      0.20365429180900
  C   3.76543519081860     -3.96252456539970     -1.28193376905765
  O   5.12956770963173     -3.54353819655076     -1.35321753555381
  C   5.52186539808216     -3.11137045758023     -0.05296740247382
  C   4.75448431973839     -4.04600040437040      0.87158699586543
  C   5.07517697617116     -1.68956666538855      0.17669031801436
  C   5.92442881679237     -0.64506719164996      0.07185269767205
  N   5.48643154674073      0.63114720287490      0.21931906760524
  C   4.17104490220233      1.01065136325075      0.45751303160563
  O   3.87378725448783      2.17995786255134      0.56666077772198
  H   1.86861046388251     -2.40525650139743     -0.04826589513453
  H   2.59749243748466     -1.92857741024432      2.59925228140201
  H   0.77731294994936     -3.01918085576206      3.33941659190321
  H   0.59645682043492     -3.99407148358333      0.62145645910832
  H   2.70984861490950     -4.74334646944814      0.47310960247164
  H   3.14277175717454     -3.29351029934208     -1.88324012931236
  H   3.69382731312551     -4.96851666144590     -1.69716733539081
  H   6.60646216504720     -3.19206572741998      0.00637931164065
  H   4.74479750246381     -3.73100202651492      1.91392032443998
  H   5.14974102180495     -5.05862031818202      0.79922444501490
  H   6.97909460743498     -0.76981202425342     -0.13397407909838
  H   6.13142688686971      1.40564042178150      0.14665957881666
