24
Coordinates from ORCA-job 8507optt
  Br  1.15402584164698      0.27979781794576      0.43385182263528
  C   2.99944840919443      0.10074255317080      0.15691332137636
  C   3.77674763036856      1.18946259250953      0.01053757766310
  C   3.39243197037919      2.63728892744658      0.10147516488164
  N   4.69111592741919      3.33087397475189      0.14539693870002
  C   4.71644373553980      4.69809198863435     -0.03079573413665
  N   5.65891243905635      5.43330860111941     -0.44611740572432
  C   5.77243886859268      2.48702931456700     -0.33715397975385
  C   7.05832882233553      2.47401363780757      0.47997138696732
  O   7.89997284364308      1.41457446216981      0.00027716604706
  C   7.42397841333377      0.15902736201165     -0.15160785711869
  O   8.16129275634455     -0.76383058309993     -0.31542872215989
  C   5.93902480817720      0.01915040653380     -0.11400330649769
  S   5.27851011020090     -1.55923486851979      0.06738087134082
  C   3.50347049994616     -1.28599391877148      0.13765179171453
  O   2.80904064161932     -2.26092989399827      0.20958881927535
  C   5.18357388154900      1.11957043990452     -0.19633660629578
  H   2.80292309394654      2.83845456410643      0.99796201795156
  H   2.79289813455784      2.93000804901222     -0.76857538845373
  H   3.77738712040568      5.17035351822884      0.25974278871679
  H   6.49017604802288      4.90905169915058     -0.71413965190313
  H   6.01877160936374      2.70907202982785     -1.38689051996167
  H   6.82290343918937      2.31275440417489      1.53460015417737
  H   7.65518295516718      3.37636292131598      0.37969935055821
