21
Coordinates from ORCA-job 8509optt
  Br  6.36035363727413     -1.27299735335001     -0.74930609359409
  C   5.62102087331271     -1.96249987219898      0.81698782169156
  C   6.14694399611769     -2.97714005242999      1.52522056691531
  C   5.46773915674366     -3.24247771695000      2.81732188857108
  N   4.22585505310582     -3.04314854445286      2.96591701645365
  C   3.55330142241445     -2.63086861374877      1.80449098736556
  N   2.88324700470307     -3.40895049876047      1.05078819736501
  C   3.35131866648001     -4.73186909915354      1.27727326702077
  N   4.49672847604238     -4.97483483186050      0.73096146388172
  C   5.02018503539493     -5.96617545783273      1.54320425599958
  C   3.93505769418607     -6.41033472110251      2.41458125788414
  N   2.90875049568645     -5.63102626953301      2.25986558872210
  C   6.33690811612430     -5.93227424787039      1.87264340961700
  N   7.27716955637076     -5.13676622704400      1.25731215398595
  C   7.21980082482731     -3.88455762012404      1.05075565839561
  C   4.20843876970578     -1.42680289282253      1.15672418986346
  O   3.77924753274177     -0.38265484942810      0.79550122656884
  H   6.06635589157064     -3.56077973980456      3.66904519270787
  H   3.96696056360125     -7.20033850309780      3.15254847903151
  H   6.72269023963187     -6.59278925180308      2.64188831798203
  H   7.99592699396492     -3.44671363663210      0.42727515357132
