25
Coordinates from ORCA-job 8510optt
  Br  0.96213641686803     -0.22821754328206      0.11301893847583
  C   2.83500559940985     -0.14542210125973     -0.08000938148108
  C   3.59544285925190     -1.26592350198341      0.09503957452379
  C   3.41556848556409     -2.65031173032463      0.36211667934377
  N   4.56944721255394     -3.27800425451623      0.33824616818129
  C   5.58038612063032     -2.37472234523134      0.08154035918308
  N   6.88858661473689     -2.82278650338698     -0.07209513562657
  C   7.86047968786647     -2.12149263974480      0.32501031547445
  N   7.86312941187139     -0.88587970909776      0.99977389433347
  C   9.20777205727262     -0.62441121131698      1.51362482215533
  C   10.06950806568844     -1.65231592361806      0.79490256153930
  N   11.32255598453702     -1.79520197673274      0.76213738073893
  N   9.18319509112242     -2.47523613666683      0.14516533481805
  C   5.02843821955375     -1.12568920628632     -0.07676649637640
  N   5.49533937219396      0.12538417503418     -0.40639599109648
  C   4.64238644643211      1.14446656073839     -0.54328387903318
  N   3.34324425506857      1.05787097267034     -0.39565132074337
  H   2.48215572041541     -3.15899542822846      0.54858826898614
  H   7.09509812517407     -0.79972967604905      1.65485283727253
  H   9.27844875526121     -0.78544739612054      2.59172581342567
  H   9.54148561875771      0.38741485244497      1.28595254466022
  H   11.79132514418459     -1.08069691788903      1.31154709251260
  H   9.45248128670408     -3.29566362519001     -0.37317980229410
  H   6.49373302679548      0.27747016818177     -0.48473437018649
  H   5.07665042208561      2.10454109785532     -0.79212620878677
