25
Coordinates from ORCA-job 8511optt
  Br  1.21342753430595     -0.85604363538595      2.12815017186543
  C   2.72906032826184     -0.60191410981802      1.02201851759085
  C   3.71590310243101     -1.51519913986690      0.92827137414111
  C   3.67716441951825     -2.86129405584227      1.61948212023043
  N   3.30198182323331     -3.92216083125349      0.69245903019032
  C   4.05605215515516     -4.07070468104641     -0.47549177454159
  N   3.61498577363483     -4.41526522402245     -1.60793276314589
  C   5.54172441748983     -3.82310433651730     -0.26457266451427
  N   6.32728348496279     -4.22842441935562     -1.41731093067295
  C   6.99772721681780     -3.22101345054132     -1.78949516591553
  N   6.92261955379421     -2.06916130253796     -1.02533034542993
  C   5.92895959889319     -2.30828018448723     -0.00061201327890
  C   4.82018170545940     -1.26894943057836      0.01112750982414
  N   5.00840210125923     -0.24154666408569     -0.74322789636386
  C   4.17323180804602      0.84871426499571     -0.81895142189498
  O   4.37023664489311      1.80920211190277     -1.50092714497790
  S   2.65775257319849      0.88546802610771      0.16964527045177
  H   2.96473478134094     -2.85409955542729      2.43791802374112
  H   4.64895392965276     -3.09103979644227      2.05719044519534
  H   2.30587513589333     -3.94534663105399      0.51397554061224
  H   2.60194549294008     -4.53702816955733     -1.59797767831548
  H   5.84300861971002     -4.41429647469064      0.60405007458043
  H   7.65108551369143     -3.23316019665500     -2.65408063571154
  H   6.87414262775915     -1.17125328425738     -1.49074750928438
  H   6.38655965765783     -2.23309882958328      0.99336986562401
