25
Coordinates from ORCA-job 8514optt
  Br  1.11119152786541     -0.06880582970981      0.63656073607022
  C   2.96623041885323     -0.18341002414117      0.38608710559213
  C   3.58986112255506     -1.30916988361258     -0.00692504381976
  C   2.79731006647407     -2.60590671599701     -0.12670254419502
  N   3.58830888286317     -3.78278991258350     -0.43966508348050
  C   4.77872841237216     -3.89503382840762      0.29589736873510
  N   4.86410856530560     -4.04375809441762      1.54590313163104
  C   6.01512320965077     -3.57326287989583     -0.50653876311780
  N   6.05010487087131     -4.31314269175150     -1.77757164171344
  C   5.77112977751595     -3.48260495895392     -2.68195540018564
  O   5.54612456705497     -2.19071064619063     -2.34701000967898
  C   5.93868525437814     -2.08867281551785     -0.96289806586294
  C   5.02150918287083     -1.10763004389067     -0.24457474023989
  N   5.63082395140981     -0.02422051037073      0.08789907258023
  C   4.95115392686518      1.01043131893179      0.70701029288357
  N   5.44329976272848      2.00421686803795      1.28752696727264
  O   3.55917565217688      0.97506029333248      0.63307011233013
  H   2.02485214602427     -2.50482215997471     -0.88943510093958
  H   2.27349599661646     -2.76216352376196      0.81830528150181
  H   3.74482952441898     -3.88265586748554     -1.43219483645142
  H   3.94149397022580     -4.17002242381725      1.96479061929150
  H   6.89817275567812     -3.77702173722358      0.09148197649086
  H   5.67172391279435     -3.70447936091474     -3.73713297870411
  H   6.92674978247212     -1.63233857005433     -0.93630272458490
  H   6.45681275995883      1.95491399837036      1.22937426859474
