24
Coordinates from ORCA-job 8516optt
  Br  0.98243508056911     -0.01379329273979     -0.19653869702356
  C   2.86063297623433     -0.00035646633660     -0.05120232015669
  C   3.55436822122879     -1.13631753909336      0.03606788692820
  C   3.05104148440016     -2.55513131635729      0.04126395837690
  N   4.27848037033515     -3.31457531166327      0.23776725831629
  C   5.42288215434638     -2.56123988026895      0.20010846095203
  N   6.64752815757645     -2.91071180762974      0.20300741151028
  C   6.98938757776119     -4.24862883843606      0.29775296628945
  N   8.06454675768634     -4.71676212978867     -0.33246345905158
  N   8.10776132002436     -5.98009864177108      0.02521220568185
  N   7.17438959321067     -6.39738657241596      0.84447921124272
  C   6.43354821800351     -5.31582267058517      1.04162904286114
  C   4.99068621626535     -1.14343207562619      0.13238897245829
  C   5.80107473038053     -0.07796233342545      0.14413040935379
  C   5.32286011358511      1.29517585163641      0.06124074731411
  N   6.01032529399901      2.35998436672597      0.06187593660379
  S   3.55915716913012      1.58377214604421     -0.05678474835912
  H   2.56312306397333     -2.80768861636265     -0.90454045246531
  H   2.33627887042062     -2.72897926182852      0.84888819984148
  H   4.31208798851397     -4.30761579913005      0.07367200581112
  H   8.82849054610168     -6.59673766738712     -0.31155915022070
  H   5.59219681964756     -5.33279531377569      1.71348765980382
  H   6.87313124024869     -0.22985814335370      0.21430833620493
  H   7.00558603635752      2.15396131356875      0.13280815772676
