21
Coordinates from ORCA-job 8517optt
  Br  1.18588307298411      0.21049393421324     -0.18309972727827
  C   3.04691619535486      0.06079755382400     -0.08033745063484
  C   3.67994967513170     -1.12999893878312     -0.09030038666078
  C   3.15005548578660     -2.54026670598064     -0.23112308281592
  N   4.17799556593942     -3.52802684445715      0.16600581499529
  C   5.56385830590052     -3.47262868387947     -0.07939611936124
  N   6.34986383807542     -4.45167160219560     -0.20816202293877
  C   6.04809503225574     -2.07371436049790     -0.06805180506172
  N   7.25004150754215     -1.56911591034642     -0.05635961104757
  O   7.06446835633505     -0.16008882665216     -0.02201829216858
  C   5.76905022564733      0.08013983516589     -0.01349359759834
  O   5.22336707999443      1.27563924831564      0.00384194753747
  C   3.79275009991575      1.34346311243308     -0.01195847796754
  O   3.32083520874935      2.42760631757219      0.02370931759173
  C   5.07638651446995     -1.07079812601512     -0.03913956844338
  C   2.68776432603915     -2.74989210215162     -1.61173658354262
  C   2.33262727085628     -2.94640359186224     -2.73695959845411
  H   2.29993031995224     -2.67023850083676      0.44366155301240
  H   3.81947936247074     -4.47101092877037      0.11123496434878
  H   5.86700020324899     -5.34919337546829     -0.20181731990426
  H   2.01568235335017     -3.11909150362715     -3.73849995360772
