22
Coordinates from ORCA-job 8518optt
  Br  2.21870994855940     -0.99035829405731     -0.53384674728116
  C   2.41348474920084      0.59243923889216      0.46410769764084
  C   2.94062696902536      1.73184506422776     -0.07254860936873
  C   2.51508190904327      2.31303301991690     -1.41259972087366
  N   1.21444415969346      2.85997371276342     -1.05968236950572
  C   0.60799828585881      3.87726241216967     -1.48131969442698
  N   -0.49390483556840      4.38022343474372     -0.75669711021457
  C   -0.72598008923464      3.71178581050225      0.46746544402654
  N   -1.68899423061696      2.84932267731665      0.66380745142120
  S   -1.25986197250219      1.83091895250170      1.89017572808470
  C   0.27131735453669      2.56545362675030      2.16884775265486
  C   0.32926987601794      3.70076044374023      1.40487230964618
  C   1.57630349496806      1.86398664431432      2.18538877103276
  N   1.62736557119217      0.74380224484539      1.55299518823133
  C   2.78997508020295      2.72258738541424      2.11361412048035
  O   3.30907162901929      3.38907938835399      2.94561382950700
  O   3.26942237636743      2.70052336689007      0.81801569938413
  H   2.41291998257899      1.51311927553238     -2.14582749527110
  H   3.22662474519383      3.05800134696995     -1.77603613114089
  H   0.86418992506209      4.47629451593554     -2.35977889388862
  H   -1.29062717166114      4.69741366305452     -1.28946769257419
  H   1.19856224306273      4.32953206922211      1.29390047243572
