21
Coordinates from ORCA-job 8525optt
  Br  1.10478196900550     -1.62894783564608     -3.48148801368299
  C   0.81485756704091     -0.08372510537307     -2.43726625768927
  C   0.87274638781728     -0.10629513687461     -1.10677287303733
  C   1.37156675238584     -1.28240211097450     -0.34755007214334
  N   0.82925488413398     -1.78664724889036      0.67885398001729
  C   -0.31847788112049     -1.24487513260048      1.23847743408406
  N   -0.60261242731896     -0.01694127597106      1.43247732541146
  C   0.09434654385987      1.05310797505706      0.91606770314191
  C   0.69767395269168      1.10665209577815     -0.29469735005267
  C   1.16565279918611      2.36812610051958     -0.88643163173499
  C   1.11472354973164      2.57149396734449     -2.22370796218800
  S   0.55534121623367      1.36539274208298     -3.38009990805699
  C   1.46924780711386      3.78569670368659     -2.87918149780776
  C   1.71903083441869      4.77321017488535     -3.51239081079887
  C   1.70040955442449      3.46594225647494     -0.03878567951765
  O   1.83445222947865      3.39510504108051      1.15340464566754
  H   2.31177530992676     -1.71388287006184     -0.69206274326092
  H   -0.98968126460758     -1.98842598006858      1.65832448915343
  H   0.01885343852160      1.95628897587252      1.50527174439749
  H   1.97855426090512      4.37827690249211     -0.58972998601452
  H   1.95350251617139      5.65384976118625     -4.06271253588787
