28
Coordinates from ORCA-job 8526optt
  Br  1.25835405875916      0.30705725225633      0.57892356209332
  C   3.10167579080214      0.01960421183839      0.40442944956383
  C   3.70618243813907     -1.13641923615014      0.06117564806900
  C   3.02652410305302     -2.39538940407075     -0.32857027470572
  N   1.86289031628471     -2.57752612692926     -0.81433533750726
  C   3.86780417252358     -3.59876927570847     -0.16254251023540
  N   5.13256422354511     -3.59350059550989      0.00771893189276
  C   5.79668624002522     -2.37692764577365      0.09253529669089
  C   5.16972714755269     -1.18242717209964      0.14702832300319
  C   5.85776852074009      0.09011571828622      0.34080837041027
  C   5.11994722106003      1.16392044709622      0.62430875794269
  O   3.75362330740260      1.14196649981126      0.72181713207587
  C   7.35333602244202      0.15782786077618      0.26244126926550
  C   7.94873220458691     -0.14521709979312     -1.12132226853057
  C   9.36962259784072      0.39468224528313     -0.96997192559120
  O   9.31513418571669      1.40298465923188      0.03978492216127
  C   7.99457013526592      1.51593896486063      0.52984925443982
  H   1.35583474180472     -1.71106043242859     -0.96945090847483
  H   3.34487180480561     -4.54756118855958     -0.24381180526100
  H   6.87233782407604     -2.45022725445405      0.16256639619983
  H   5.49126663826837      2.15529852050549      0.82773865240833
  H   7.76792747769155     -0.55527337620402      0.98352703009194
  H   7.39327934893882      0.41367291570978     -1.87750644877606
  H   7.92719708937999     -1.19800142565553     -1.39221862544707
  H   9.75510346169333      0.82766235396852     -1.89407328808996
  H   10.05990514993194     -0.38446714729160     -0.63799840088288
  H   7.46447640979315      2.30875346721090     -0.01333612949896
  H   8.03565736787662      1.77828226379335      1.58748492669241
