22
Coordinates from ORCA-job 8529optt
  Br  1.16661558706633      6.00686345368305     -1.30944358157630
  C   2.76639225236986      5.47108949286373     -0.42820206798198
  C   3.07019581189664      4.14850601817196     -0.35113288618330
  C   2.40852532700783      3.07027858121248     -1.07370116742765
  N   2.36657307575379      1.83290499062831     -0.76337656470331
  C   2.84938231061392      1.32599945785224      0.43601506177797
  N   3.88795013040081      1.60795108028142      1.12311941574100
  C   4.70856586834701      2.69112949642629      0.86788961309194
  C   4.36140322608701      3.83789774863763      0.25601359051214
  N   5.28775341910659      4.92150059880857      0.18948061742765
  C   6.56108445596704      4.70612926420492     -0.03761387531867
  C   7.70587814741124      5.49293520562985     -0.02680691354493
  N   7.85100608548680      6.79715236851822      0.26100916518952
  N   8.12345378210970      7.84438214872621      0.45778604234938
  O   5.53235194207503      7.08258119140176      0.89929704209499
  C   4.72713301459399      6.29911332190860      0.43642958787872
  N   3.47513943431799      6.48369348798688      0.08884203385953
  H   1.94504715915434      3.34485108897757     -2.02107626442594
  H   2.25581961504999      0.48660668448821      0.79047442888256
  H   5.68525997698361      2.62211863998120      1.33455513315055
  H   6.78712243408632      3.68177327304147     -0.31420794906990
  H   8.64634694411410      5.04854240656938     -0.31035046172397
