25
Coordinates from ORCA-job 8530optt
  Br  0.95699322529114     -0.28398905430961      0.79615065876935
  C   2.75059918470121      0.04227806827723      0.26742753787945
  C   3.20459851229212      1.30636700402325     -0.08609884557667
  C   2.28600701830541      2.51514951246193     -0.01555789743177
  N   2.86528040978999      3.65441146789963      0.68775173738368
  C   3.83755108924597      4.23560652516510      0.12468555807726
  N   4.39827265790229      3.86601499910175     -1.13336622904776
  C   5.23146005386137      2.68046816255942     -0.98647525328067
  C   4.55754614473610      1.39929450583935     -0.51118127802041
  N   5.38331287823980      0.36616225393733     -0.55464769639940
  C   4.91393879479209     -0.81356037140902     -0.18803847404358
  C   3.59801660638627     -1.06527484616825      0.23000052381040
  C   3.38481660563018     -2.44611182046176      0.54200844819326
  C   4.50519515357352     -3.18000674022157      0.36194826279625
  S   5.86236152360807     -2.26672487716481     -0.19033632651352
  C   4.50854619169969      5.32459305761536      0.79080134583735
  C   5.09438312494107      6.22356139388341      1.32248429815997
  H   1.38758059567733      2.24146250580641      0.52555179406822
  H   1.96243230372949      2.79454211554040     -1.02509547619147
  H   3.65999696252123      3.69810987478161     -1.80757673478059
  H   6.03903415591136      2.91362191905261     -0.28820832256029
  H   5.70563501854044      2.46091723464271     -1.94293460933354
  H   2.44411389088841     -2.84848651103880      0.88567535827837
  H   4.61642283854833     -4.23956437020976      0.52984378125429
  H   5.60590505918711      7.02315799039607      1.80318783867182
