25
Coordinates from ORCA-job 8531optt
  Br  0.88148754036979     -0.13761972819491      0.14925884917218
  C   2.75532517337824     -0.01433815345503      0.01166990467861
  C   3.37845297683359      1.19083292021974     -0.22066535823190
  C   2.67120315615079      2.50769320929094     -0.37275159275989
  N   3.47614304339260      3.57800888123147      0.18301366698563
  C   4.83014000621240      3.69253351629739     -0.01700111586382
  N   5.56542323404700      4.67773657400253      0.30233465639481
  C   5.46071643114753      2.48985589742750     -0.67784792219262
  C   4.78198662833440      1.19192965897210     -0.34812126777736
  N   5.52809774093527      0.11117701177699     -0.23314610061859
  C   4.91406208762732     -1.04296365408300      0.00919632123381
  C   3.53376397867094     -1.17639970184802      0.13900305080490
  N   2.89480142785242     -2.39434044555835      0.38680405010943
  N   3.57614481564859     -3.43258461199191      0.50105989523539
  N   4.90955898659928     -3.37801609011155      0.38910778532021
  C   5.72465555959353     -2.26690225332237      0.14578352236972
  N   6.98519427050154     -2.29139235291919      0.05379980313855
  H   1.72087741521417      2.48435129329181      0.15575874585621
  H   2.44570632935993      2.67020653250260     -1.43611983821804
  H   2.98945531591027      4.39463230025926      0.51435126120237
  H   5.02831475171308      5.44014992975272      0.71397830109833
  H   6.51396308340192      2.44698600376865     -0.41743505537038
  H   5.39646259460817      2.63959625047186     -1.76284797583328
  H   5.34098389124660     -4.28304402218442      0.50157508391861
  H   7.36607956125055     -3.22808896559682      0.17924132934712
