26
Coordinates from ORCA-job 8539optt
  Br  0.99503524010608     -0.19519872812261      0.39150759996273
  C   2.86740988569896     -0.05901522778040      0.17893716028351
  C   3.47866925803308      1.14592311799248     -0.03254015974756
  C   4.92173787666888      1.15192087366074     -0.19136582230563
  N   5.60439821005726     -0.05281823479038     -0.13614206200997
  C   4.97699600209518     -1.22127447889877      0.08945481797009
  N   5.75099626652526     -2.34322592633204      0.11600436906159
  C   5.20092206835417     -3.62292755754260      0.53362217546678
  C   6.26775320639951     -4.61090770574949      0.64801884053729
  C   7.15496227246752     -5.40556616898426      0.75391492755455
  C   3.59487202233041     -1.25388740985843      0.25493707902523
  C   5.30619293206241      2.44065277480080     -0.37952738018430
  N   4.19544461195331      3.27074962987061     -0.35829019571762
  C   3.13591729120718      2.53580276509753     -0.15414614936988
  N   1.85533022222841      3.07616944037420     -0.04960907326324
  C   1.58293585229094      4.41143722890457      0.04700556168484
  O   0.46019518294235      4.84960624653345      0.12494864502893
  H   6.60002859141751     -0.05208837692166     -0.29823546421491
  H   6.73979438267516     -2.22750682388541      0.27303360381554
  H   4.46732982187911     -3.96228806633603     -0.20191828359001
  H   4.68770748009976     -3.53326405784230      1.49770894444336
  H   7.93541861617026     -6.12306761202185      0.84900601225333
  H   3.08945985022762     -2.18699527220549      0.43486360418014
  H   6.29329670781285      2.84423840368350     -0.53675545855910
  H   1.06051475912553      2.45530359123444     -0.02576145809853
  H   2.48668138917116      5.03222757511943      0.04732816579284
