25
Coordinates from ORCA-job 8543optt
  Br  0.49686966200228      1.55538750527638     -1.38441254729336
  C   1.98949334723215      0.73000904960143     -0.59224683606213
  C   2.25599899187266     -0.56405398682569     -0.78870311213236
  C   1.51047220029385     -1.52312607310865     -1.59913681052538
  N   0.32923209611233     -1.89300770180218     -1.26855234713631
  C   0.49022414891023     -3.28833331339994     -1.19530472946110
  N   0.38315061039715     -3.76316494024407     -0.03583305758698
  C   1.45041371192847     -4.41031083850815      0.51018050511962
  C   2.70153162437567     -3.87239219268466      0.60450272857439
  C   3.39891426465376     -2.58783357534389      0.40405846630756
  C   3.32032919365755     -1.30290956839892     -0.05856481059712
  N   4.47616481757471     -0.48714306350785      0.15219480086860
  C   5.79347537516365     -0.88008629292177      0.16442806506498
  C   6.57393947593854      0.22059801025431      0.39117425756564
  C   5.71529726533102      1.34112656140489      0.50759724119120
  C   4.43618670994919      0.87194419740486      0.35037045823850
  S   2.94419386618146      1.76983227628023      0.41638426421326
  H   2.18067245304846     -2.19755581719629     -2.14854168180432
  H   1.00986854258675     -3.80209596298333     -2.01682021151175
  H   1.26271389207914     -5.33638282748230      1.04243287849398
  H   3.36184677029425     -4.54099287693519      1.14391273802472
  H   4.36385846631065     -2.70498743007594      0.88366593508746
  H   6.06463446340725     -1.90087115085652     -0.03851178951628
  H   7.65000326247597      0.22677192844278      0.43636920333953
  H   5.99051478822280      2.36957808361047      0.66935639153764
