21
Coordinates from ORCA-job 8544optt
  Br  1.63478483208367     -0.18760634901478     -1.89130509350212
  C   3.04817262279698      0.20886344770488     -0.71003052903092
  C   3.35869920107920      1.47314227800631     -0.41411200971220
  C   2.68587084329267      2.75503739993038     -0.87237196313617
  N   1.35332104955512      2.81285203283219     -0.28529574023300
  C   1.03003506282878      3.82461783730411      0.39486389904617
  N   1.77494571071303      4.99880319824857      0.68283892174810
  C   2.97587962976612      5.00069196621657      0.28235265961048
  C   3.66337098520296      3.87374454905206     -0.43230871955338
  C   4.66259587405602      3.17846053289603      0.47163408694181
  C   4.47044996430131      1.85512510267298      0.44508591751517
  S   5.38972731661900      0.62942736054425      1.27883126630632
  C   4.65146785650261     -0.80957399459124      0.60812520744395
  N   3.69614970397598     -0.91414705830931     -0.21643841745974
  C   -0.30666472947077      3.84858912140254      0.97070440905125
  N   -1.35595377811622      3.87592115133835      1.42787379630457
  H   2.53848785968164      2.72994935857838     -1.95428057762644
  H   3.57016915264495      5.88826515449563      0.49822391963743
  H   4.18307149471600      4.30202316943531     -1.29563487606833
  H   5.43242428639094      3.70232801029192      1.01958710008312
  H   5.11899506137998     -1.71451426903518      0.98665674263391
