24
Coordinates from ORCA-job 8548optt
  Br  0.93037921216324     -0.16151744596721     -0.62444575270068
  C   2.88711091629820     -0.00908255070848     -0.38814482129596
  C   3.60572890663519     -1.26366821451009     -0.21970599661980
  C   2.98258139699755     -2.51957949607733     -0.27423359296161
  N   3.60714890448037     -3.65905771434468     -0.12525316045017
  C   4.93564556366221     -3.57251910000860      0.10051619656008
  N   5.58398939321366     -4.73706373315012      0.24211035958040
  C   6.97209708758873     -4.85294831368677      0.62930330588285
  C   7.15900080466185     -4.78307926789698      2.14991409670526
  C   6.43702832765353     -5.85747209561847      2.82598320599377
  C   5.82641864340185     -6.75277235252921      3.33657096652288
  N   5.64538332336421     -2.44129523721465      0.18277213107396
  C   5.00322099828171     -1.30021523119190      0.01829954275963
  N   5.80103498996292     -0.19192323961898      0.11132174600988
  C   5.82077637023589      1.01156824877642      0.03969225216982
  O   6.02375590412654      2.14642665308336      0.00626589432521
  O   3.34337599741302      1.08501782631610     -0.39372679236036
  H   1.91619738833085     -2.57393565958475     -0.45296471514050
  H   4.99119279128169     -5.55146662439235      0.29391012798998
  H   7.52763086200588     -4.04654452626331      0.15647234516953
  H   7.34517035995439     -5.80490329335443      0.25385930849289
  H   6.80410557880882     -3.81430201022635      2.50801564434696
  H   8.22309429137815     -4.84880780879284      2.38561032194165
  H   5.29193198809915     -7.54285881303816      3.80785738600427
