28
Coordinates from ORCA-job 8550optt
  Br  1.69270417922547     -1.39730926727999     -0.10851175784561
  C   2.92436255372265      0.01511627407418     -0.37733228073341
  C   2.77027589716867      0.91451650702227     -1.36589611565952
  C   1.49103290583548      1.30671895054292     -2.04644553970220
  N   1.07528408352656      2.65376164870202     -1.66108180065177
  C   1.37879268859560      3.25703790491219     -0.57697855309557
  N   1.99740138030586      2.79785750213911      0.56618063890786
  C   2.77853215512332      3.57908699057593      1.53104320582525
  C   3.58397603370822      2.67467247696180      2.47147721902955
  C   4.85683600984769      1.99461289803233      1.90699177225757
  C   4.47103532354826      1.28280730766983      0.65798552882734
  O   4.70133187982302      2.00988828071556     -0.44219350191257
  C   3.89087883198665      1.83406228817104     -1.56422892429691
  N   4.11343201657144      2.46890197053209     -2.62250297995482
  N   3.79151962833690      0.19950342002384      0.67446368098583
  C   0.93171439392208      4.70042925397935     -0.59197047678991
  O   1.05150266009139      5.46025371776954      0.32715591049221
  H   0.69899536870332      0.59411280124986     -1.81161203509867
  H   1.61029221253106      1.32949176551264     -3.12923203639260
  H   1.90413091753232      1.81691502977140      0.76506689718862
  H   3.44690560267317      4.25079966736977      0.98575269000390
  H   2.12588790865566      4.20399404000506      2.13859631100483
  H   2.92445741395831      1.89297062662709      2.85784718018070
  H   3.88780424212730      3.28049044456242      3.32616455064782
  H   5.23316577762347      1.28243460219048      2.63872300802852
  H   5.62530105822282      2.73484073005556      1.68863943007560
  H   4.92500615920784      3.07710734938860     -2.53620670750497
  H   0.47644071742542      4.98492481872305     -1.55389531381710
