23
Coordinates from ORCA-job 8552optt
  Br  1.12726822144081      0.08253285604573      0.35310186484301
  C   2.98698263224178     -0.08419449493652      0.08830636166794
  C   3.60899345029284     -1.27617532649678     -0.02614686239980
  C   2.97379281995160     -2.61865256930634     -0.04669097272027
  N   1.80982800191050     -2.96511614302286     -0.42463086579556
  C   3.87853683545930     -3.71079442950584      0.37268024870471
  N   5.14885201512275     -3.62490998548599      0.42103639450521
  C   5.76782327967001     -2.41670093863695      0.12135151875928
  C   7.27079338988410     -2.46597878169512      0.07629345655797
  C   7.84366652784153     -2.60323222634224      1.41766640765755
  N   8.28770224239790     -2.70040243638708      2.46920593359510
  C   5.07544149481543     -1.27223601862132     -0.06501478352193
  N   5.74795767540317     -0.06900954040297     -0.26278666572005
  C   5.09803021653506      1.01080456857154     -0.20128589192596
  N   3.71670115168816      1.10323185525449      0.05657171007968
  C   3.19191407352279      2.40315215357641      0.21963254571467
  O   3.88358649413788      3.37718970526348      0.18829701287479
  H   1.25819992924494     -2.19212178132052     -0.78572549118120
  H   3.39941514938891     -4.66175560225440      0.58645667580130
  H   7.66759883933953     -1.56025273664608     -0.37828153315729
  H   7.58043260259597     -3.33080562289451     -0.51329089040163
  H   5.57140338083425      1.97438918829158     -0.33532926109577
  H   2.11207957628072      2.42603830695233      0.37458308715826
