23
Coordinates from ORCA-job 8554optt
  Br  1.25647915112543     -0.26701605168292      0.37234793214476
  C   3.05786014089079     -0.15088648031757     -0.14899453811615
  C   3.83624632823233     -1.26557778083338     -0.17169714616288
  C   3.61595154376857     -2.64147943875476      0.15051312634881
  N   4.72451428231004     -3.32985949280207      0.04226099999887
  C   5.72637686413986     -2.46998708378352     -0.36710238142159
  N   7.06274811567236     -2.89497193664496     -0.47212382649061
  C   7.88130796458088     -2.53619486488413      0.68413905114106
  C   7.27449228838066     -2.91496180068803      2.06203656393251
  C   6.24180233478863     -1.96894755467815      2.48120008972134
  N   5.46313991749818     -1.20028607518755      2.82242857404493
  C   9.19316405485716     -3.18235337378891      0.54967355474035
  N   10.20533255500462     -3.71175662099008      0.47383342325263
  C   5.24573564607956     -1.20793113821075     -0.53224312788798
  S   6.00904613284665      0.25798540936561     -0.96320031265622
  C   4.69048614668241      1.33391979848339     -0.81719937074390
  N   3.46895002582549      1.09666488039253     -0.47136270369125
  H   2.68039514779844     -3.08543020971622      0.45559402447366
  H   7.09382700639079     -3.89568335306601     -0.63481489432999
  H   8.04866416047661     -1.45557875562536      0.66894743247879
  H   8.05606191243609     -2.91796179817792      2.82252289271327
  H   6.84282604095281     -3.91577411302499      2.00487515991667
  H   4.95659223926157      2.35706783461577     -1.06463452340710
