24
Coordinates from ORCA-job 8557optt
  Br  1.34862137316751      1.32145862302570      0.32328788383014
  C   2.13586317633227     -0.36421832447429      0.09287903460420
  C   1.90046219574061     -1.46085436250918      0.85003380794174
  C   1.44417835548732     -1.31797400497832      2.26422087672173
  N   1.15392492385603     -2.21041460019465      3.12554725594842
  C   1.03146604107528     -3.48114222516539      2.60060539541819
  N   -0.07752227762174     -3.79701926453408      2.03665489552491
  C   0.26958591515876     -4.35653382063405      0.81716978697646
  C   -0.25390751077862     -3.79780945718430     -0.29455767538583
  C   0.70799025695669     -3.27279911245132     -1.25285982531031
  O   0.43816787573851     -2.58379229771804     -2.20894479202491
  C   2.17739819741337     -3.36054917593214     -0.82689032740703
  N   2.94071420522733     -4.09705344691859     -1.50550588595831
  N   2.59163308034513     -2.61783762702932      0.34142556452738
  N   4.01163182356597     -2.34351232840756      0.23259179703457
  C   4.20223273840508     -1.29040201783483     -0.45273474959521
  N   3.16541034642712     -0.43943066333293     -0.81237149421072
  H   1.43434423305982     -0.28852823249031      2.61457987284657
  H   1.95167762389991     -4.07005660954841      2.53037319653843
  H   1.19261355624794     -4.93528206415536      0.75451463248206
  H   -1.18840834694604     -3.25405787264901     -0.23271944762124
  H   3.90122640149124     -4.08033884626692     -1.16626658528374
  H   5.20654117788598     -0.99432159744893     -0.73000059291266
  H   3.34615463786451      0.34146932883228     -1.42303262468487
