26
Coordinates from ORCA-job 8562optt
  Br  8.71584842620555     -4.33814086295830     -2.75276028502527
  C   7.91478310977683     -3.66460618194644     -1.19096080497123
  C   8.03870855057984     -2.39051029781549     -0.79133989188991
  C   8.82963314672779     -1.38041028033973     -1.58535477078190
  N   10.23051665078316     -1.34198230803438     -1.24385524049693
  C   10.82233780380826     -1.09529511173960     -0.03252577828465
  N   10.42052178920117     -0.80072823457526      1.12875386506193
  C   9.12681229002739     -0.67820403402634      1.75374374618882
  C   7.80354081007232     -0.64544430021858      0.96104109538671
  N   7.42765349398706     -1.92843420104178      0.37221660873885
  C   6.63905766831627     -2.75574474522020      1.11941885497388
  N   6.35941877353872     -3.98125299506976      0.91198263701232
  S   7.01607464168108     -4.87191260830648     -0.28331874450152
  O   7.94396447663775     -5.79470988048301      0.28623679055443
  O   5.96340852318569     -5.36326616508425     -1.10977005566135
  C   9.00252718275138     -1.73242330041793      2.77323469195877
  C   8.83572312882251     -2.62465516418250      3.55328952366843
  H   8.38341288445870     -0.39113841945197     -1.49927383248392
  H   8.76464120421416     -1.65430368601264     -2.63410045999996
  H   10.85719424911673     -1.70000953796149     -1.94448560965181
  H   11.90627026881830     -1.16074962417122     -0.14079284671908
  H   9.14994915753130      0.28211144790881      2.28260269696623
  H   7.83524032780892      0.13659635110118      0.20903249767293
  H   7.01584347577603     -0.37735499884332      1.66410639846942
  H   6.18888777228670     -2.27201649669742      1.98140799861883
  H   8.70503019388610     -3.41941436441186      4.24947091519596
