24
Coordinates from ORCA-job 8563optt
  Br  1.86921235154862      1.26592112038207     -3.00806067181403
  C   2.69787268479582      0.31162254341721     -1.60139671370804
  C   2.19106437389672     -0.83869299718957     -1.04199070905731
  C   0.78427756424693     -1.10024871424207     -1.44802935135690
  N   0.13682936035138     -2.19216486913708     -1.45019515909448
  C   0.88575557732132     -3.28255544560802     -1.09199973481424
  N   0.52775799262714     -4.05292730493597     -0.15140910150751
  C   1.58756666417180     -4.67352721104566      0.45339455642002
  C   2.74570757213682     -4.02220659085683      0.73005359632320
  N   3.15348842788881     -2.72750823082453      0.53377530948187
  C   3.07310398123940     -1.57863445892762     -0.02496834338023
  C   4.15999715525056     -0.69465530078870      0.35726805145996
  C   4.53358967796872      0.46243145195120     -0.26472305782472
  O   3.82406676659909      0.94526738641901     -1.31910700782704
  C   5.71511317547905      0.96696153417728      0.31107726168887
  C   6.02614587112450      0.06496429954437      1.30376959613272
  N   5.09156294525388     -0.92602771229603      1.31924825648080
  H   0.22408122171440     -0.21795560535698     -1.73530062392933
  H   1.84938570052408     -3.40783033482897     -1.60167905596461
  H   1.43764152502922     -5.66458260215027      0.86384785333958
  H   3.45776230848292     -4.58736755978559      1.32410137447173
  H   6.26058048878240      1.85443891302773      0.04306061410407
  H   6.84725573649668      0.06889662930144      1.99944654212208
  H   5.06918087706969     -1.75161894024640      1.89581651825354
