32
Coordinates from ORCA-job 8566optt
  Br  2.03461879859854      0.05942528092741     -2.87871540338478
  C   2.59390427031017      0.51529134733453     -1.13421180958482
  C   3.29573490221166      1.65417677032512     -0.91023790892419
  C   3.36275109473159      2.79534245799537     -1.90348587985191
  N   2.01006047212817      3.33836003416971     -2.04359680198618
  C   1.31389669382504      3.74885868538625     -0.90431468329978
  N   1.82374718149921      4.37397321286188      0.07860079936099
  C   -0.17346903456316      3.44481690581684     -0.89266549306419
  C   -0.65542761673624      2.95375470255410      0.47560096159581
  N   -0.14469523540302      1.62322059080747      0.76157755548870
  C   0.10142586062593      1.28149896658000      2.15312279909627
  C   1.10544075212327      0.10716516910433      2.28624779563027
  C   2.18226367620324      0.34638892184289      1.27246546441614
  C   3.07247042518902      1.34193772042823      1.43403842027163
  N   3.67906663702607      1.94176042545736      0.36474422751600
  C   1.98750284254855     -0.25453163065796     -0.05033921640572
  O   1.27788093420104     -1.22943447240256     -0.23918882685139
  H   3.69351057476563      2.46048043601115     -2.88267737730996
  H   4.05655627754394      3.56635195425009     -1.56460050891938
  H   1.45295519357461      2.74798188518419     -2.64561080245565
  H   2.80743814624778      4.58431022009043     -0.07679816010945
  H   -0.41047422245096      2.69476467860693     -1.65174364067415
  H   -0.70822047602342      4.36027535508335     -1.15870100998226
  H   -1.75077041371850      3.01188985059791      0.50922394298927
  H   -0.26923403805703      3.63881816229905      1.23037082178066
  H   -0.66536513419447      0.89837583485210      0.28252098601337
  H   0.55552571270515      2.16322327947264      2.61294185151903
  H   -0.80918679176736      1.05087158152154      2.72216816044736
  H   0.62156123611628     -0.84650254247294      2.08054018071602
  H   1.48893409396896      0.08475902543625      3.30755179021933
  H   3.25719132093076      1.80887273516432      2.39285466007018
  H   4.19040586583951      2.79252245537198      0.52731710567278
