31
Coordinates from ORCA-job 8567optt
  Br  2.47312110937510     -1.08458347343529     -1.80654115349045
  C   2.83967278378894      0.07905515741389     -0.36675846687601
  C   3.35160795832029      1.30280381577341     -0.56006767165255
  C   3.39031131881657      2.04194317949601     -1.87083493484250
  N   2.03163596435696      2.54321262302100     -2.06412057433283
  C   1.52496561950434      3.60030554713637     -1.30245365024179
  N   2.17411062681219      4.57415250727841     -0.81820127579674
  C   0.03350632079292      3.54955636582221     -1.04313512875285
  C   -0.28571114237956      2.99301364804940      0.35142548651459
  N   -0.19668934973639      1.53592871008566      0.38841065033802
  C   -0.39617697359556      0.93998237143302      1.71033709215955
  C   0.85263948878358      1.06678384518770      2.61708878235558
  C   2.05157810714313      0.99343966631881      1.72879821686492
  N   2.69964757395213      2.07702713159955      1.56898688530599
  O   3.56951644973941      2.13534898750299      0.47946701704770
  C   2.27243944623803     -0.24127188116153      0.93293390703762
  N   1.84665175922475     -1.34859995128757      1.38436476856692
  H   3.65357576135589      1.39162179226309     -2.70019536310335
  H   4.10063829227666      2.86435322389765     -1.83132314379045
  H   1.37049487280224      1.78400578189566     -2.16462113327936
  H   3.17733144376272      4.50694590771621     -0.96909463202770
  H   -0.48423544593463      2.96208469069892     -1.80761263489441
  H   -0.33315322351630      4.57277690467886     -1.10157629865382
  H   -1.28095145621932      3.34196031909795      0.66064074290440
  H   0.43804401858647      3.40654108047195      1.05796292263244
  H   -0.87641450964293      1.14316664468151     -0.25193311114566
  H   -1.25521318208469      1.37489968170568      2.23780051855509
  H   -0.59288595389473     -0.12023258881315      1.55731171620126
  H   0.87473410673698      2.02157510922791      3.14013550262457
  H   0.84681623863666      0.25464827367384      3.34252929501658
  H   2.03139197599815     -2.10744507143014      0.72727566875524
