29
Coordinates from ORCA-job 8568optt
  Br  1.94108886249844      1.34941927258861      2.99852251673188
  C   2.74111881393388      1.05468248999991      1.29957173143749
  C   3.49838344709270      2.00496102872611      0.70437729269608
  C   3.31542929809794      3.50346091088111      0.93818023268298
  N   2.58651112914509      4.14750906759990     -0.17115335300854
  C   1.29284432332489      3.85895488073978     -0.63809054252453
  N   0.57098915483854      4.61270011579625     -1.35627927727874
  C   0.91233953722937      2.47406442586992     -0.23621226762006
  C   -0.34578464833343      1.69505857069919     -0.51823916666083
  N   -0.28718782821024      0.47260410610684      0.31308159677675
  C   0.71584728435941     -0.41006824480670      0.66902414669935
  N   0.37486191196739     -1.55070113514869      1.12657763804460
  C   2.17451670608997     -0.02461818152772      0.50258032840852
  C   2.83830676207290     -0.55118594147326     -0.54001761116147
  C   4.17536718404731     -0.10256896610534     -0.92975264187568
  N   5.08992304734170     -0.73209545157100     -1.53251405807373
  S   4.41910509836176      1.65058571542928     -0.72100574794238
  H   4.28005897169753      4.00648384009395      0.99765363468463
  H   2.80968249572966      3.64103101240435      1.89449028417882
  H   2.92745640451733      5.06513600719744     -0.40905510662094
  H   1.00707044179561      5.51679739254227     -1.53653271588214
  H   1.00269907746976      2.46713397695295      0.84477232296525
  H   1.70752621170079      1.87851523194199     -0.66727621975847
  H   -0.43993436174324      1.45479108948824     -1.57992942615073
  H   -1.24104346555901      2.23690144551873     -0.21554203049932
  H   -1.18252784618911      0.03687980022682      0.48322224283393
  H   1.18717239729552     -2.07925544789092      1.42743005113710
  H   2.36017443275477     -1.29281359926504     -1.17049666884649
  H   4.81600515667275     -1.70136341301501     -1.69738718537333
