23
Coordinates from ORCA-job 8569optt
  Br  3.05590815520234      0.30482430867231      2.58046688872855
  C   3.20093208424933      0.57717335413650      0.74440287044068
  C   2.73811793362183      1.65186932893373      0.09317073132554
  C   1.98569452134673      2.75634591706639      0.73913275864292
  N   0.93011167015231      2.58974244827686      1.41656455080640
  C   0.07166232712184      3.74852330886512      1.57839736653081
  N   -0.02439328545570      4.52270198565979      2.55894444094748
  C   -0.58676364704193      3.75239282267944      0.24047551047536
  C   0.09705674165220      4.38005195303428     -0.72976212406231
  N   0.56098683212970      3.51663130715959     -1.73155462218476
  C   1.82375462799739      3.60059998815553     -1.86878365038215
  N   2.61062784034588      2.52134005119389     -2.24741898832157
  C   2.98211147806387      1.69444022682677     -1.37225655567478
  O   3.75428126615798      0.67136668315585     -1.86334642155162
  C   4.13703517922083     -0.42337262846688     -1.17022475136110
  N   4.73588887914708     -1.39640917535565     -1.65701560429408
  O   3.85209548100793     -0.44135748647517      0.16626906452046
  H   2.34099602131651      3.75831355327444      0.48711002466188
  H   0.63604282583324      4.26684480062192      3.29323026797624
  H   -1.00378555003657      2.78959203797693     -0.03409505878018
  H   0.63822235874473      5.30828127225819     -0.54012357496673
  H   2.39191218347254      4.50302102418947     -1.61292645988674
  H   4.88650407574992     -1.27191708183933     -2.65365666359030
