24
Coordinates from ORCA-job 8572optt
  Br  1.12494331283719     -0.03443151701292      0.25270052690890
  C   2.98543627887817     -0.24618511859657      0.07766947734894
  C   3.58940565096588     -1.45480066041691      0.15228195037301
  C   2.84061630955133     -2.75654431700557      0.33933902949503
  N   3.66056642317372     -3.88663554440350     -0.07464453392057
  C   3.68370924707053     -4.14303438288811     -1.45447525611240
  N   4.61124684275481     -4.57385458790626     -2.18745975148114
  C   4.92078140349471     -3.90314512697626      0.64640986285149
  C   5.61044302048539     -5.19397972201251      0.60049265920927
  N   6.14792690622855     -6.20388697053109      0.59395517209683
  C   5.79712111939911     -2.73293681491636      0.16988595880528
  O   6.97021017951352     -2.82495236386829     -0.03386485300828
  C   5.02360289303869     -1.44672657286472      0.01813247008517
  C   5.73131971781531     -0.31277397326201     -0.19160599038482
  C   5.07535778877056      0.97791923834758     -0.29076596125875
  O   5.60567173327015      2.04730443568805     -0.48257407606322
  N   3.68385455520074      0.89800149986744     -0.12681710666754
  H   1.92548709585472     -2.75845088961585     -0.25193940670041
  H   2.54884644159643     -2.89679672378034      1.38413555598835
  H   2.70856925778710     -3.95236196376002     -1.90343965062987
  H   5.50256994083184     -4.73804437154192     -1.72325806480287
  H   4.69010143112278     -3.70920117109831      1.70045799708565
  H   6.80819989107423     -0.33721245448847     -0.28232319088075
  H   3.19401255928447      1.78173007304294     -0.18329281833729
