23
Coordinates from ORCA-job 8577optt
  Br  0.90137263339350     -0.20119553375716     -0.46347725200527
  C   2.78141292843964     -0.12341319156689     -0.26665909620757
  C   3.51581045580968     -1.16502822052302      0.18119303899495
  C   2.89461222362191     -2.48062294784705      0.58368081452622
  N   3.13987530827618     -3.54719203954515     -0.38099757402157
  C   4.32529793797424     -3.90503573077029     -0.62668735047157
  N   5.52848105379773     -3.45840233556853     -0.12269393881035
  C   5.73007061807773     -2.27448376895505      0.69917035517215
  C   5.52732134146100     -2.56514265588037      2.19290621130971
  O   5.37269222800088     -1.70342320956890      3.00293760580617
  C   4.96233302898438     -1.05024363529212      0.24469877615633
  C   5.67624216850673      0.05417077703176     -0.05298144313346
  C   5.14133736532150      1.32643573282612     -0.50123036135445
  O   5.79348818846056      2.30782973870009     -0.74169997862611
  S   3.36963193457697      1.42563301013610     -0.73976207041677
  C   4.51077776860519     -4.99372923913999     -1.58272391525830
  N   4.70616786505820     -5.84705210461946     -2.32068229260863
  H   1.82015164504037     -2.37045293191622      0.67448832487260
  H   3.25118952012893     -2.77941206129639      1.57483930957165
  H   6.34520193050466     -3.82667192419739     -0.58228339890754
  H   6.79502282092617     -2.04305017509366      0.62250671825729
  H   5.57015541821285     -3.63905996441384      2.46093509513305
  H   6.75635361682091      0.05154241125743      0.03552242202151
