29
Coordinates from ORCA-job 8581optt
  Br  2.40073920256730     -1.81731932798955      1.26341656033169
  C   3.05879832667802     -0.42885510521921      0.17361923282340
  C   2.70448707908557      0.86017289454074      0.36065696375910
  C   1.75969679069760      1.33723740465654      1.43521534672708
  N   0.59514618065119      1.97113877850108      0.84991080767866
  C   0.26538973175442      3.27502516401304      1.10417307859789
  N   0.69163865278885      3.85838368557555      2.15026793382035
  C   -0.43083003097129      3.96840208063569     -0.04776070562104
  C   0.66890725806942      4.50187271952733     -0.96767860073397
  O   0.75936769817067      5.67428126502702     -1.21193818980047
  C   1.67418810391969      3.49832124265139     -1.51158021879399
  C   2.83629572113353      3.22602970535390     -0.51424194385375
  N   3.24982977338648      1.82457418684889     -0.49534198849455
  C   4.11631722579038      1.40642657617554     -1.46388421003443
  N   4.49741079394753      0.21062826748142     -1.68280379620155
  C   3.99239357868692     -0.83370454396892     -0.89045658432904
  N   4.30956825516517     -2.04947483422977     -1.06841374455428
  H   2.24004598596032      2.08377792605536      2.06964805223410
  H   1.48633667575111      0.49918959295028      2.06865802262378
  H   0.16422191813291      1.51126782675080      0.06660277943539
  H   0.42936771648946      4.83943015823902      2.15619915862962
  H   -1.03375877163686      4.80547968727408      0.29414956038944
  H   -1.05849477727028      3.26957379202763     -0.60725729035351
  H   1.17873653942084      2.55414356862856     -1.73688827652636
  H   2.07068665734021      3.90504878457700     -2.44104547641767
  H   2.59168712127469      3.54203937989463      0.49607759856689
  H   3.70410709551141      3.81204559702057     -0.81204512389725
  H   4.50396084549238      2.20657324677457     -2.09024498794075
  H   4.96175865201233     -2.10770971977320     -1.84901395806480
