25
Coordinates from ORCA-job 8584optt
  Br  1.04614558179849      1.49439015306909      0.59174466602350
  C   2.59219587496193      0.46432543219302      0.24154042698984
  C   2.67390638304801     -0.83452199940736      0.61744285403987
  C   1.69193706670126     -1.40461699020688      1.56169142847005
  N   1.25655916819426     -2.59863505117648      1.63362057957063
  C   1.66019441475641     -3.53299018605272      0.70455158937751
  N   2.83565078107090     -3.73794043136287      0.26351367576699
  C   3.94121284235053     -2.95264536775076      0.41015828043234
  C   5.23284448700343     -3.74114006506721      0.39204408708576
  O   5.01521489071227     -5.10841289283832      0.65828453484399
  C   4.62376177399540     -5.88645297600719     -0.38145745838823
  N   4.34044596449342     -7.10169590703168     -0.28560062151368
  C   3.90660333144507     -1.57657803732981      0.37014087279588
  C   5.11962476311776     -0.83186216033603     -0.05010434149827
  O   6.23092200667651     -1.33725126602835     -0.10240945268735
  C   4.89099399657996      0.54206698921881     -0.50109315745964
  C   3.69219507083897      1.14026379536084     -0.38802356906479
  H   1.32305031398143     -0.71005178479463      2.31543686282517
  H   0.87532185771648     -4.21076233043047      0.37965475587910
  H   5.91450030358265     -3.36814674201293      1.15101360543895
  H   5.73651013703589     -3.58800076106962     -0.56908848369002
  H   4.59089430796910     -5.37198032836282     -1.34188623164395
  H   4.41783637709954     -7.41783852764999      0.68158560254489
  H   5.74629942565827      1.05442637901816     -0.92117326224911
  H   3.54517887921197      2.15905105605623     -0.72258724388945
