20
Coordinates from ORCA-job 8586optt
  Br  1.07558718885527     -0.06349142181669     -0.01101160492596
  C   2.95728112587281     -0.14410680109504      0.03321073330016
  C   3.67657222737741     -1.28652600411388     -0.03208622583298
  C   3.03395896181387     -2.59190469682286     -0.14615738221821
  N   3.62390227913438     -3.71236874247180     -0.01761034410393
  C   4.99505150085063     -3.72368372602488      0.29287000908506
  N   5.61900259464057     -4.79800747427508      0.56344926300929
  C   5.75588836263325     -2.46492705111041      0.28707032134584
  C   7.20243413298091     -2.70550807498745      0.62226154278951
  O   7.67962655091581     -2.41496662568281      1.68155828949743
  C   8.04332616761475     -3.43291933877921     -0.42887879552126
  O   7.72141972461744     -3.48366202755855     -1.57719284602897
  C   5.13906318522890     -1.28662928443399      0.07864066784989
  C   5.80284750095942      0.02091326124479     -0.08816547372032
  Br  7.64826436797418      0.05649607176392     -0.54199597993422
  N   5.25441470420869      1.15753357566934     -0.03523283057240
  S   3.64276424087663      1.42415687032806      0.17494235763830
  H   1.96885735761258     -2.60812582316339     -0.35667013157059
  H   4.98607849297201     -5.59491779624103      0.50081960358037
  H   8.98265933286044     -3.85535489042902     -0.03282117366701
