25
Coordinates from ORCA-job 8590optt
  Br  3.51427619487014     -0.12537416247811     -3.14342847056571
  C   3.43925708171777      0.06057121077895     -1.28005888688909
  C   2.59965608025165      0.90104108827532     -0.65126825039835
  C   1.55440083927614      1.74106180689698     -1.34962553773578
  N   0.22368146987928      1.65555876709601     -0.76977012830380
  C   -0.20630086384297      2.55650689851542      0.00263397260956
  N   0.53085221269451      3.56639265375998      0.62018567238003
  C   1.89008779083863      3.28131582645700      1.04235618015141
  C   1.97686298335177      1.84597633640972      1.57041377335717
  O   1.57906382553569      1.56383372451231      2.65566348963693
  N   2.64228150648890      0.90141227053837      0.74278567952477
  N   3.23903239350855     -0.10426954501847      1.46456751700927
  N   3.99728764204620     -0.89546102505934      0.90088243705190
  C   4.32121225712603     -0.78910998113757     -0.49399773376899
  N   5.28934743206022     -1.44188748917503     -0.97280948157558
  C   -0.13844425178650      4.70368635995029      1.07865824141015
  N   0.32899914053556      5.73353169737382      1.63024005779965
  H   1.47447132058655      1.33968547100445     -2.35650138281651
  H   1.89759774814074      2.77472246482317     -1.45615758650370
  H   -1.26440563758055      2.56358862935858      0.25826694238788
  H   2.10779758320267      3.89416092452635      1.91628395359600
  H   2.63994380575468      3.48971358898735      0.28107913729769
  H   5.72546770091677     -1.99606095114873     -0.23504670671413
  H   -1.20974226309654      4.64631107225643      0.89020979126944
  H   1.34131600752406      5.72709236249671      1.73743731978977
