26
Coordinates from ORCA-job 8594optt
  Br  8.85697877726536     -1.83654218792346      0.53740753513998
  C   7.37412914828506     -1.50924837079749      1.66234060635068
  C   6.85244540670560     -2.46633750077045      2.44984592728607
  C   5.51263542844381     -2.15348306865381      3.06204193348958
  N   5.53824946257575     -0.75718114865322      3.52930493340021
  C   4.79569594626724     -0.41534047436254      4.65510560348363
  N   4.07836595370824     -1.27442565325904      5.23931960281738
  C   6.40800990355989      0.11389926120062      2.92519790042799
  N   7.08674330313903     -0.17758938542438      1.87266142644756
  C   7.11837944937255      1.05512504146705      3.88137480948483
  N   6.92730935516867      2.25238383264651      4.21380227476892
  N   8.25068448397263      0.31146410472256      4.28567469975831
  C   8.21751190461081     -0.92559628473895      4.57649126480910
  C   9.43384711532663     -1.73563848614458      4.43916445259043
  C   9.47248762737775     -2.96604340557950      3.91737199985715
  C   8.43504683416471     -3.90159578011258      3.39844734425397
  N   7.36404242022947     -3.73281461296221      2.73388307764009
  H   4.69920005802870     -2.28310611080646      2.34286180717406
  H   5.30671416318466     -2.79216506108300      3.91880077269137
  H   4.90152513030217      0.62924988427720      4.94335538855105
  H   3.60125563345852     -0.86361304563456      6.03574804646716
  H   6.11486549535306      2.63490100518872      3.73499381112640
  H   7.30729489922697     -1.46451788745224      4.84636705182707
  H   10.36791762867467     -1.23900659388632      4.67427828180296
  H   10.45895980884811     -3.41157426595381      3.82656792119751
  H   8.70770466274982     -4.94520380530405      3.55859152715649
