25
Coordinates from ORCA-job 8596optt
  Br  0.95168319931853      0.06397864474150     -0.26098975763318
  C   2.82869751523952      0.02501771275207     -0.06721692569042
  C   3.45427820740573     -1.14772556741168      0.20976899625523
  C   2.78168511041378     -2.48711777639082      0.35058263116999
  N   3.58531393747963     -3.51592230618988     -0.27281578331988
  C   4.93460241220231     -3.59229904930252     -0.05819168795599
  N   5.75138998873203     -4.47442057572420     -0.46033971661553
  C   5.44816931142092     -2.44702499768346      0.77967105396608
  N   4.80967029503730     -1.17842100991271      0.40674278385304
  C   5.62602201275580     -0.06500610142309      0.30806362055363
  O   6.81772414888015     -0.10866018653862      0.55616933118777
  C   4.95809217648025      1.17591979255047     -0.08780483626214
  N   5.84133783753799      2.23842058214533     -0.22762621044123
  C   5.90354549970735      3.09620601612218     -1.30386390161782
  O   6.80572725116305      3.87082990387719     -1.46601123931536
  C   3.60160952655828      1.22558214708486     -0.19297092093720
  Br  2.72669359318059      2.87495296369383     -0.44515608414949
  H   1.80955501714414     -2.45959341048344     -0.12985944013520
  H   2.61521577414406     -2.68971699778637      1.41706486239683
  H   3.13063122415449     -4.22718979485210     -0.81948614678298
  H   5.28982993498878     -5.22260549868190     -0.97611356577522
  H   6.51761119580161     -2.34351683560866      0.64020811416117
  H   5.24852883396837     -2.64774199049117      1.83672505577137
  H   6.72273162030878      2.10849025518232      0.25964921118080
  H   5.06165437597641      2.99556408033090     -2.00119944386426
