29
Coordinates from ORCA-job 8597optt
  Br  0.94174701346065      0.03785148377587     -0.17330040730831
  C   2.84705933963986      0.00983992879994     -0.10516956943928
  C   3.52335421081644     -1.22181613294406     -0.01127631916736
  C   2.71446940154248     -2.50431245609390     -0.02284929834967
  N   3.45686896189169     -3.68276969749082     -0.45602495570834
  C   4.44770974312688     -4.08260542813543      0.46821089063817
  N   4.22847116226826     -4.73650320420870      1.52279752555262
  C   5.81928723157852     -3.57823768258144      0.14447254368209
  N   5.89603366233724     -2.13944026941209      0.30636875775557
  C   7.21311034114612     -1.58771419027805      0.00113923966185
  C   7.05570051569316     -0.08886645806761      0.23339620523546
  C   5.57215484422169      0.10054664963709      0.04145208724768
  C   4.92621626627721     -1.15427127487099      0.08433961988213
  C   4.86141414336617      1.27646733340339     -0.06354458873345
  C   5.55124048512326      2.58883048469484     -0.07213544488741
  O   4.98365358369283      3.64620391490998     -0.13839932786468
  C   3.46853852261652      1.23449216684330     -0.13666713123842
  H   1.86432638839259     -2.38043680690063     -0.68966480939963
  H   2.30364773368921     -2.70023382652789      0.97029941520899
  H   3.87280562935719     -3.49279206332819     -1.36149664987904
  H   3.24195046706435     -4.99604189899523      1.57853859936203
  H   6.07456765280105     -3.86621754239811     -0.88965757644551
  H   6.54550280573903     -4.03779218247322      0.81407160991987
  H   7.47429860034611     -1.79836387238301     -1.04621659734317
  H   7.96726075426201     -2.04865689405197      0.63870426669323
  H   7.66922757594616      0.50023511591646     -0.44493414493534
  H   7.33370152831665      0.17558568963032      1.25712018089540
  H   6.65363854303610      2.54964016251110     -0.00700546560509
  H   2.90804289225046      2.15537895101909     -0.20956865543038
