23
Coordinates from ORCA-job 8599optt
  Br  8.18892667153478      2.36164130312659     -0.74188654269285
  C   6.38645568971864      1.73183808223654     -0.65427909060310
  C   5.45553500356453      2.47953721433410      0.08284506560161
  C   5.89006972863505      3.83239032778478      0.63169106207815
  N   4.69907878442618      4.34572988187633      1.23577307680116
  C   3.85425327983212      4.87212360690507      0.48152607718119
  N   2.51670737951950      4.59052175999909      0.84947154533139
  C   2.32018485265666      3.23115040414049      1.24389050831554
  N   3.03392125887257      2.23816434436481      0.97600085375399
  C   4.15892502156410      1.91034830503716      0.18667890014094
  C   3.92999304825692      0.71840026910162     -0.51884235102810
  C   4.92373652962046      0.14133995529692     -1.27173995211488
  N   6.16174553205004      0.63333391032933     -1.32324818401807
  C   1.52180664047919      5.51939652479332      0.68385032505384
  O   1.71017064291806      6.64306327888624      0.31052962588531
  C   0.16277443198139      5.02966132693705      0.99562950252948
  N   -0.89339207307903      4.66153509362173      1.23834280269709
  H   6.27420151678567      4.44264006423400     -0.19586763296614
  H   6.68242619010163      3.71404397640802      1.36927269557854
  H   4.01318967002522      5.32658174635794     -0.49965146349626
  H   1.43036017750409      3.08799377792521      1.85186979264674
  H   2.95851685698580      0.25327965654496     -0.43322081222334
  H   4.74141316604639     -0.76571481024132     -1.83463580445222
