23
Coordinates from ORCA-job 8602optt
  Br  1.00939938197912      1.55684680918122     -0.85185000198463
  C   2.51162108002021      0.42926169858785     -0.60857124131704
  C   2.43439266199977     -0.91606303576585     -0.40485021377242
  C   1.09824998572640     -1.49159752472523     -0.20487471378531
  N   0.73659518260258     -2.44673875611230      0.54235710172456
  C   1.45649236292727     -3.33791274106926      1.29650412593752
  N   2.01121409865284     -4.39787860834731      0.86483703798867
  C   2.16313430321968     -4.53697215854004     -0.50385452087948
  N   3.00460211865727     -3.90265570762590     -1.20797180975284
  C   3.88961225361339     -2.98811600147713     -0.66117276651813
  C   3.69182168950542     -1.70614911887395     -0.30977630444510
  C   4.84109966153146     -0.87071396353805      0.03013097052715
  N   6.05279638100583     -1.18073306303628      0.46901943961195
  N   6.67127744470424     -0.01968811538343      0.51785583739218
  N   5.97273120196712      1.04740541548494      0.15485220388736
  C   4.81075598721995      0.51375732879466     -0.15696307256546
  N   3.67395663110167      1.15229246609834     -0.60897610085317
  H   0.29051295698606     -0.97890803651178     -0.72123581883043
  H   1.38317552415889     -3.18537630424575      2.37157610971340
  H   1.54615149388702     -5.29408291206076     -0.98416581582150
  H   4.91179192238028     -3.35232036314290     -0.60534768300634
  H   7.62615758155447      0.05971186279916      0.82378694609224
  H   3.64545809459901      2.15463082950978     -0.69630970934319
