20
Coordinates from ORCA-job 8603optt
  Br  1.69807656714671     -1.73356491716353      0.57972300229038
  C   2.82189203468326     -0.28192614255726      0.17052909917871
  C   2.64543859611702      0.96886174195012      0.63077820400898
  C   1.73150878693557      1.19478427542458      1.77521291912183
  N   1.26582900345805      2.30526626239508      2.19180499610872
  C   1.45605464018562      3.35775285208633      1.32305174580074
  N   1.05719792912210      3.26192004934817      0.12672091959140
  C   1.60668262941241      3.95973564683521     -0.90169348707852
  N   2.84002342069708      3.85310384260878     -1.22133221631715
  C   3.75485637121996      3.07059909287942     -0.53155125455974
  C   3.70262158969613      1.92435276601552      0.18977409743850
  S   5.30581450769929      1.21783685489357      0.57116131493165
  C   5.11917215243688     -0.21169657765547     -0.45371854099614
  N   6.01621000855459     -0.87441602929803     -1.01433125267695
  O   3.81692689964675     -0.65444393038544     -0.64879189602236
  H   1.50052760581083      0.31184479291418      2.36478285039309
  H   1.96942983933479      4.23791844433631      1.71760135544989
  H   0.94815568301879      4.53503040873562     -1.54617199753092
  H   4.76255893414255      3.43879658810851     -0.69348137050594
  H   6.93102280068157     -0.45175602147170     -0.88706848862617
