27
Coordinates from ORCA-job 8605optt
  Br  2.86751051930993     -1.46012454498684     -2.58219214893259
  C   2.82561152439064     -0.26628826695640     -1.12592881423437
  C   2.57822483450056      1.08925641377734     -1.28966588915310
  C   2.03604279808767      1.72705674119031     -2.56585953963206
  N   0.65434645441802      2.02123494067618     -2.18934202334133
  C   0.44004334235273      3.18454918040122     -1.76790961054955
  N   -0.60661515227036      3.49645471387411     -0.86139125546548
  C   0.12767340395203      3.78936342390930      0.32565581631205
  N   0.23886212207011      2.98665114345876      1.28265542003514
  C   1.29586543297621      3.25680890051619      2.24530277704477
  C   2.21932687334556      2.03023090406533      2.39277094469324
  C   2.58945144869476      1.28980800704094      1.12459628609094
  C   2.57933030537298      1.86810735419536     -0.13627015206838
  N   2.82358569419943     -0.01410867171588      1.26318553710117
  C   2.99620860780635     -0.75434952509349      0.17637657758385
  C   3.30366924935587     -2.14793731795937      0.40582971045413
  N   3.55726224361101     -3.25018696446829      0.59028228961777
  H   2.07354141657888      1.03576381607645     -3.40181104468355
  H   2.61271033204775      2.62678329102840     -2.81275791167126
  H   1.14066493912802      4.01500411529481     -1.91300944109114
  H   -1.15891063216358      2.65501134493810     -0.70838238269361
  H   0.71374996356306      4.71216427088607      0.24594230057205
  H   0.86100804716099      3.45575832216557      3.22575876630292
  H   1.87780730352439      4.14314675047895      1.95833229904492
  H   3.12439720454998      2.34259899917443      2.92057916893666
  H   1.73413163978799      1.28784669248140      3.02630465743337
  H   2.44050008364902      2.93539596555104     -0.22905233770656
