27
Coordinates from ORCA-job 8611optt
  Br  5.04583254038278      0.37385349408427     -2.96312533493502
  C   3.84160164272199      0.33028617406784     -1.53086668438930
  C   2.86671817629418      1.25739079145741     -1.36174554135755
  C   2.67605045796097      2.56422080776057     -2.11551584868984
  N   2.22347589408436      3.58608862790402     -1.18015958018060
  C   0.90945052646186      3.56751200026789     -0.70750004067468
  N   -0.13940027882061      3.32139344222594     -1.37612483171333
  C   0.74438482344957      3.95119734950761      0.75600725180483
  N   1.30884245516578      2.96669145917773      1.68385889106760
  C   0.51218473176843      1.74853467782392      1.85219010177898
  C   1.39136049655026      0.50198469916866      1.86400452103563
  O   1.48968194102619     -0.26786386189729      2.78112456922524
  C   2.21459858725903      0.31962827964792      0.61472180380749
  N   3.19094213704391     -0.60898494371190      0.56143873198248
  C   4.05154024377321     -0.73456499581064     -0.53866386165868
  O   4.88569152981868     -1.60235256907512     -0.58659450116741
  N   2.00011852499418      1.16666201037736     -0.31676731349022
  H   1.94905095099339      2.44253688736109     -2.91902333103156
  H   3.61221937193231      2.87425384145581     -2.57635522350806
  H   2.87575489554323      3.68573531961319     -0.41179573752449
  H   0.06161569218537      3.10151886294029     -2.35020086918515
  H   -0.32546571060410      4.11731367454002      0.90859321604987
  H   1.26611039429516      4.89608683178309      0.92834393293988
  H   1.46894437751680      3.40053075404950      2.58179792489497
  H   -0.06700011972813      1.74292237272619      2.77769590687203
  H   -0.17755847074379      1.66081789526462      1.00797853805814
  H   3.32125418867497     -1.24539388270999      1.34068330998874
