24
Coordinates from ORCA-job 8613optt
  Br  1.07357164949736     -0.49962452048548      0.79965843869977
  C   2.83832539740885     -0.18804917982798      0.20887342172710
  C   3.42680216602547      1.01583169481780      0.36260087942114
  C   2.76291193456320      2.12333375124844      1.09254358722930
  N   2.73554098455925      3.34956157748764      0.77091313359198
  C   3.35398431173665      3.75358416893909     -0.40819774029304
  N   4.49651985830773      3.41500584863402     -0.83193856355273
  C   5.29369747170200      2.48832470892755     -0.15271395839437
  N   6.48558541191566      2.70077003495986      0.20290765300748
  C   7.00894655133486      4.02529700504780      0.00089564041455
  C   6.43580838618617      5.05530788338470      0.95183641795946
  O   5.46596348333217      4.88520319247993      1.63041740405144
  N   4.75251219345451      1.18005186800963     -0.05378824087151
  C   5.52031008023356      0.04298466933570     -0.42083796651169
  N   6.77061345129089     -0.04232700135166     -0.58257753995436
  C   4.68510535699408     -1.13936109380554     -0.68908308470150
  N   3.44654041578373     -1.25577975837669     -0.40068686555728
  H   2.24100622980367      1.82868625484988      2.00001889053742
  H   2.78186746546468      4.47914348253675     -0.98017174869946
  H   6.79603141478483      4.40926241750495     -1.00749025973949
  H   8.09299113124715      4.01463676940030      0.12825038703548
  H   6.98247535498095      6.01739536272648      0.96116442439316
  H   7.24739974072930      0.81707958979920     -0.31995790912271
  H   5.20248955866319     -1.96931872624238     -1.15863640067012
