25
Coordinates from ORCA-job 8615optt
  Br  1.08279701319779      0.12138029170295     -0.08096961865981
  C   2.96574334158925      0.02265111069185     -0.02705472106790
  C   3.62611609227530     -1.17300933790916     -0.01722829131033
  C   3.00026028637488     -2.47769782030160     -0.01925277579216
  N   3.62710280323399     -3.58986478610387      0.04969001106728
  C   5.03444970984713     -3.60302707775870      0.12294828323048
  N   5.69085969221756     -4.68482786050180      0.29541835050711
  C   5.75767945807400     -2.34354250647206      0.02182926286639
  N   7.15632627110656     -2.41273603102749      0.08645267928678
  C   8.01139982243240     -1.83572083244723     -0.82656851485999
  N   7.74061701048293     -1.07565624859409     -1.80839543240728
  C   5.07293770909973     -1.17179623831154      0.01616868895616
  N   5.69918837282483      0.06447523212972      0.05468697943364
  C   5.01870346853786      1.23850116563991      0.04560800052223
  C   3.65418959298359      1.26038907181272      0.00629056272557
  C   5.79899935961785      2.43244301102269      0.07522641528099
  C   6.46745788781071      3.42565537551362      0.09575739466209
  H   1.91666325460929     -2.51695368671745     -0.07879861784509
  H   5.04369645884417     -5.46763666188023      0.36089675967938
  H   7.48038403887399     -3.26988362810239      0.52002502181463
  H   9.05457013772942     -2.05759503551752     -0.60680155615660
  H   6.73582572519819     -1.00097539236705     -1.96657544447359
  H   6.71057854426757      0.09339760309696      0.02251544704347
  H   3.12649935906079      2.19960771145318      0.00089663606100
  H   7.05995458971014      4.31042257094859      0.11123447943555
