24
Coordinates from ORCA-job 8620optt
  Br  0.78218509332697     -0.21888809899490     -0.22950481226765
  C   2.65106428030669     -0.22281886683052     -0.10899569853871
  C   3.35588379885164     -1.37005548615223      0.16033590676396
  C   3.13854160735213     -2.74003712477369      0.41168719096757
  N   4.29970543492016     -3.36498254321598      0.58989210476001
  C   5.33058999967639     -2.47615300424842      0.47562175978963
  N   6.68229838676455     -2.70043637542559      0.56239900921938
  C   7.19009205301663     -3.84623996614487      0.81009681692142
  N   6.49538350140989     -5.01549491779569      1.01947738520919
  C   7.02256796296283     -6.15362895618394      1.59045211942116
  N   6.31121825163765     -7.18381949631004      1.76205550752150
  C   8.69363511799273     -3.94730203319032      0.73872573833422
  O   9.43713162012482     -3.08122152290681      1.09387869829382
  C   4.79431027410454     -1.22187218816547      0.20756634135065
  N   5.34495405551287     -0.01672565865868      0.00038838590819
  N   4.67441824407555      1.07020933280005     -0.25315556852659
  C   3.35407747498490      0.97539990031610     -0.30868541179194
  H   2.19425730214732     -3.25785036309715      0.46034888683549
  H   5.48565208194537     -4.97852902528490      0.88584684394973
  H   8.07093968610769     -6.06813734609010      1.88286751280144
  H   6.84783943659547     -7.92299103252407      2.20431962252513
  H   9.07851908942514     -4.88266273695386      0.29124921613584
  H   6.35410337386703      0.08406272595345      0.03594207969700
  H   2.83363187289096      1.89717478387766     -0.52180963528045
