27
Coordinates from ORCA-job 8621optt
  Br  5.56683087818089      3.23652457157755      1.54972125735641
  C   6.87680029980333      2.61915397314230      2.80149868031137
  C   6.52799231317621      2.34828654034500      4.11061640824002
  C   5.58603021915440      1.17766496816970      3.98418123215657
  N   6.38099118845105      0.21304808816314      3.11369192394895
  C   7.54684408521989      0.61084417019665      2.52139180351297
  N   8.52313362424919     -0.39367101373869      2.31713542077938
  C   9.55946419558460     -0.11504820141357      3.21183563588186
  N   10.00499706159371     -0.93739353365612      4.06432987459718
  C   10.74057169989429     -0.26857213516516      5.08832924425513
  N   11.92770847078129     -0.46699483638492      5.45538707706544
  N   9.91588513370303      0.69518299954773      5.68659902456939
  C   10.34352014081260      1.90582138092599      6.14512865992036
  C   9.58204480572368      3.02271938023829      6.04994431081423
  C   8.33715569942781      3.11542730902874      5.31991867664327
  N   7.58096687141758      2.11986157705698      4.99932681026240
  N   7.88051908925070      1.84430847078988      2.25663087981443
  H   4.63449896443187      1.40108561409597      3.51410667808447
  H   5.43680325939481      0.68920991454437      4.94426324861252
  H   6.32578352409195     -0.75783198993832      3.37485846289996
  H   8.18091629559660     -1.34217671246192      2.41816508651062
  H   9.84359956829576      0.93591731370442      3.17345519386416
  H   12.36339931814646     -1.17931743481020      4.87672198547164
  H   8.94461512176409      0.69755755239344      5.39195801262982
  H   11.35499142638342      1.92775384682769      6.53084959851354
  H   10.00037908846437      3.94807154553595      6.41780602003310
  H   8.04455765700631      4.12056664128511      5.00314879325076
