25
Coordinates from ORCA-job 8625optt
  Br  0.97828379925228     -0.32953843354398      0.27113389956536
  C   2.84615190624540     -0.33101132270792      0.07333442745196
  C   3.60664619384635     -1.39295386888095      0.40019238674185
  C   3.10309313631280     -2.74756716480390      0.81801233360185
  N   3.33162434016872     -3.69294829416180     -0.27215767113115
  C   2.39385294757335     -3.64195093636116     -1.32670375007354
  N   2.54443071797441     -3.91702270348093     -2.54392448766271
  C   4.56898906800468     -4.32221458159859     -0.38723072240783
  N   4.87591992004681     -5.30636231593119     -1.11585846566232
  C   5.69530722033059     -3.78537932640786      0.50009264122831
  O   6.48420598955004     -4.53896529450807      0.98516049273982
  C   5.87683151519017     -2.29331330734808      0.80282898575636
  N   4.97540802602431     -1.32602809204288      0.19093853780921
  C   5.48743510929187     -0.19156642178754     -0.37222706762027
  N   4.82601602275384      0.84250599068379     -0.72010532443686
  C   3.44263060699391      0.89979105237742     -0.49555282032020
  O   2.79336290790294      1.87581901709567     -0.76186818943138
  H   2.03856276947639     -2.69928757006923      1.02826701524182
  H   3.59422219923354     -3.10348498549825      1.72447932711810
  H   1.42281648376714     -3.29121078932829     -0.97717330059654
  H   3.49701310015625     -4.17789687595426     -2.79255222604495
  H   4.08145629451790     -5.67670966800292     -1.63447056999133
  H   6.89101393570447     -2.05417450862710      0.48591015215180
  H   5.85659621207392     -2.19641788370917      1.89209013791947
  H   6.56412957760787     -0.21011171540278     -0.52161574194683
