21
Coordinates from ORCA-job 8626optt
  Br  0.92493623911793      0.00485404516264      0.17687052656809
  C   2.77707469992848     -0.10800615416455      0.09023525771602
  C   3.48351471866515     -1.23997952593468      0.06845256327983
  C   3.28643556107319     -2.66576016456403      0.09507695524785
  N   4.43874398504736     -3.26669393198232      0.08043249334550
  C   5.46895964706413     -2.32249407283522      0.04322450165768
  N   6.80746607371448     -2.67225275995090      0.03409910794193
  C   7.33659666090030     -3.95167320151324      0.05235617821718
  N   6.75507914571329     -5.07149063059335      0.05866937389516
  C   8.86433263769765     -3.98966662579238      0.07231096484657
  O   9.46874102804187     -5.02190474962669      0.07800207024630
  C   9.74604997529893     -2.72664718899716      0.08718888828153
  O   9.36092422057934     -1.59252485916144      0.04911479022759
  C   4.92742459100414     -1.08007092589041      0.02913897209041
  O   5.48428030999062      0.14722629304657      0.00120780700079
  N   4.65686263135290      1.25939662039740      0.00994043635725
  N   3.43257950711277      1.13121773818202      0.05191797723323
  H   2.34844708725016     -3.19818793458971      0.12138682475345
  H   7.46922066242204     -1.90651719799439      0.02544365304726
  H   5.74275600396176     -4.97067856626193      0.04875678429762
  H   10.81657461406346     -2.99014620693621      0.13017387374874
