23
Coordinates from ORCA-job 8627optt
  Br  0.66149814780917     -2.20671291459834     -0.64443316306499
  C   2.29041503650482     -1.32814583924053     -0.36849983274729
  C   3.11950646955407     -0.96208593358446     -1.35055270205608
  C   2.83216342996412     -1.11607236111007     -2.81054767386862
  N   2.46499468711312      0.19335251270664     -3.32575542136847
  C   3.37644580546467      1.04797016356120     -3.41577444621079
  N   4.75436939345675      0.87788526431750     -3.10555126262512
  C   5.63179607736738      1.65070073590036     -3.95260610864871
  N   6.87715279024052      1.72157528551825     -3.98464585532768
  C   5.27169806101556      0.14381693365902     -2.04975810402945
  O   6.45377191847405      0.01473206260581     -1.87704045793156
  N   4.36369648274573     -0.36548959867644     -1.06554080357252
  C   4.90383178407241     -0.45543442462454      0.21382667300927
  N   4.28857458794329     -0.78055481374831      1.27094208163532
  S   2.65574858429600     -0.95662694897223      1.31464561531713
  O   2.34076929669082     -2.08888595301800      2.11418899359127
  O   2.10728268136052      0.32466242198845      1.61817027119651
  H   2.01073512413510     -1.80573764872643     -2.96476853091618
  H   3.72147014708077     -1.50591130331332     -3.32150534339477
  H   3.15350682260508      2.03052345021879     -3.82033038093364
  H   5.03744203335069      2.23986108011397     -4.64812100967097
  H   7.33449098496638      1.12739137488541     -3.29876056909409
  H   5.96063965378893     -0.22181354586271      0.25641803071142
