23
Coordinates from ORCA-job 8630optt
  Br  0.97694941508113     -1.01332291710961      1.15182372530186
  C   2.73010250529187     -0.49007052395897      0.68300371253097
  C   3.04810550386154      0.83037047031699      0.51604938074023
  C   2.07240105019200      1.89868918007082      0.71177605582112
  N   1.99495849428087      3.03862171884193      0.14004841577509
  C   2.90220747468493      3.46529132348077     -0.82031346072389
  N   4.16384362998059      3.32513092071697     -0.82871416771571
  C   4.75114966177670      2.56546998701934      0.18286384774130
  N   5.58993306809603      2.93072451366121      1.03352229289920
  N   4.35867675911898      1.17030382472738      0.16132611441748
  C   5.29848633982563      0.21949328382571     -0.06658821545414
  N   6.53279926359877      0.38188642738115     -0.42171340415359
  C   7.06667436665174     -0.90465768296997     -0.53490866630570
  N   8.22513075230785     -1.29024882024118     -0.85400918710673
  N   6.04639829489348     -1.83858055858197     -0.21744216598522
  C   4.91371265999870     -1.17745934758648      0.08534302064701
  C   3.66113614538009     -1.53954133458294      0.46714582645578
  H   1.28831351776357      1.66851921411410      1.42694699047904
  H   2.44734912439535      4.05128848581459     -1.61408754885086
  H   5.81790039531350      3.91596140687716      0.90458867106849
  H   8.81523541695520     -0.48334975760114     -1.03575601001130
  H   6.20487694440945     -2.83167764602453     -0.20499001644863
  H   3.35965921614200     -2.56884216819134      0.59408478887820
