21
Coordinates from ORCA-job 8643optt
  Br  0.84282936727358      0.99885512834838      1.18962872042449
  C   2.53906528334414      0.37305871865328      0.68583136314403
  C   2.84731700836318     -0.94475489599368      0.52149158148406
  C   1.85312392849465     -1.98225966084235      0.82921956911605
  N   1.73166660093377     -3.13402805360329      0.30200200670397
  C   2.53920704912509     -3.56344909526433     -0.75049850413591
  N   3.79554862282815     -3.48117921825684     -0.87354294823482
  C   4.57962758331961     -2.75847785333914      0.02828162568926
  O   5.52075092986179     -3.21836206003180      0.60635161530839
  C   4.20283338917542     -1.30919828446187      0.13654641495543
  C   5.08400076738228     -0.30895262178691     -0.05905436343521
  O   6.36682930430040     -0.31248536639013     -0.42151639006873
  C   6.76554635236354      1.06127604906153     -0.50595625894155
  N   7.91530629333234      1.40824340238857     -0.84385974183207
  N   5.69399679784199      1.88259479967036     -0.16491351701219
  C   4.72381056108501      1.07394487922513      0.08547888808060
  N   3.45212230852494      1.36590566247125      0.46366486347609
  H   1.13889216180785     -1.73578935999937      1.61213989782504
  H   1.98220627034908     -4.09434082785903     -1.51899729516542
  H   8.50463785363056      0.60310292859475     -1.03697971518201
  H   3.18468156666260      2.33529572941550      0.57268218780048
