24
Coordinates from ORCA-job 8645optt
  Br  1.03940856589285     -0.32064819442292      0.06857325696491
  C   2.91266637747152     -0.11333727281911      0.01330687378423
  C   3.53760241889860      1.08928858818641      0.32076184197200
  C   2.84599742945164      2.37328869529328      0.69434106831368
  N   2.94260720091970      3.37142826635509     -0.37083075502361
  C   4.09679768508474      3.60729340529244     -1.08784674596026
  N   4.16237096066866      4.10997342152233     -2.25271834741171
  C   5.44309828869140      3.37156319694260     -0.41828179095278
  O   5.50919588187395      2.35705117336290      0.57903391183969
  C   4.93208469985331      1.16460103156478      0.24230744451651
  C   5.72058391437334      0.08417376516326     -0.11464064510082
  C   5.07522719379793     -1.10495051120573     -0.40980968139916
  C   3.69202885223526     -1.19822414202714     -0.34960702949216
  O   3.17100305276200     -2.41268906868947     -0.67524749030564
  C   4.11505628706021     -3.33766597041029     -1.01673188170519
  O   3.84781209681112     -4.44228443340594     -1.34215264424266
  S   5.74944674829267     -2.63641621567982     -0.89917138803359
  H   3.29864650707486      2.76373387701793      1.60590051165077
  H   1.79105352851420      2.20700388014797      0.89042670777084
  H   2.10756321915364      3.45566413792147     -0.93158823007287
  H   3.24208275351420      4.32022843170069     -2.63749284763516
  H   5.73913924138991      4.29086668628132      0.08652334050989
  H   6.15351510623170      3.16425521556303     -1.21911224528250
  H   6.79601198998250      0.18580203634493     -0.15494323470440
