26
Coordinates from ORCA-job 8646optt
  Br  0.86424315442486     -0.51914256824988      0.14708863866588
  C   2.74432538311353     -0.34039372830860      0.04367752584497
  C   3.55795375551361     -1.32087089427204      0.48065308399230
  C   3.08520970223889     -2.62381510569188      1.07976756959845
  N   3.24548210624784     -3.73308648082057      0.14566871786980
  C   4.38431589886683     -3.98427281990581     -0.58928073508095
  N   4.45519250090488     -4.69890226376310     -1.63573367938950
  C   5.72070460550784     -3.45890044073516     -0.08470432088263
  O   5.67740074467562     -2.36322764584727      0.82638597936154
  C   5.00846236954263     -1.25437095585227      0.37647570926297
  C   5.69624785921023     -0.18379853698087     -0.04350281967152
  C   7.20416684688933     -0.14770990104292     -0.05267584147533
  C   7.75866771544194     -0.31146205676834     -1.39891733351029
  N   8.19183593325412     -0.44366978917537     -2.45087873766915
  S   4.92413627924776      1.26985044133028     -0.57778377632379
  C   3.18266658207333      0.92341509616932     -0.57021332730063
  N   2.35964260395851      1.76249010064396     -1.03899653434676
  H   2.03473905523277     -2.56927861350579      1.34063258624873
  H   3.65080963513292     -2.81763159697718      1.98977854501472
  H   2.39669603547245     -3.98761738659813     -0.33773467187861
  H   3.55282906645721     -5.08421709615216     -1.91005840323658
  H   6.31305481717090     -3.20031010605458     -0.96426970196581
  H   6.22179849262209     -4.26211575644563      0.45372530304542
  H   7.57835703916993     -0.95190370125955      0.58026927967293
  H   7.56533379269038      0.80030561512134      0.35248846677912
  H   2.80772802493952      2.58363619114221     -1.44086152262528
