26
Coordinates from ORCA-job 8658optt
  Br  1.34846855577033     -0.26977739319828      0.64601789262321
  C   3.16412409485665      0.00445351764012      0.16493797136260
  C   3.66528553048598      1.28625022333098      0.07532663463676
  C   2.81914959520286      2.49940317689250      0.34983799947705
  N   3.55305810537111      3.70948944354869      0.02805604209101
  C   4.87272761584682      3.69589043424942     -0.21675138371568
  N   5.50983699634278      4.93363665776991     -0.36706936416752
  C   4.96557602604995      6.17152561422780     -0.25901888421442
  O   3.79622975854457      6.39525681306183     -0.00752983071819
  C   5.89013388578813      7.35526296074032     -0.49773642399170
  C   7.38202624553421      7.18452037293190     -0.60372477491762
  O   7.97454974071645      6.14182318491378     -0.65536855495049
  N   5.63318083720482      2.66665065386988     -0.35290254313602
  C   5.02997949595007      1.42235703505253     -0.25601283314857
  N   5.81370588011072      0.37297286106712     -0.49250819272455
  C   5.28913988776140     -0.84220942049837     -0.40645396681781
  C   3.96847726548969     -1.09779445723908     -0.07794914811383
  H   2.50862916785205      2.50879012952328      1.40115012258830
  H   1.90494942145614      2.46143038391181     -0.24733477847807
  H   3.11341668979941      4.61454711822483      0.13101456201070
  H   6.50652506288735      4.86130616683383     -0.55135856801547
  H   5.67975583930015      8.08845420218095      0.28500878829716
  H   5.55516546313794      7.83840824784096     -1.42288400626209
  H   7.93848317572367      8.13849198765042     -0.64403095595750
  H   5.96313680255813     -1.66780673554336     -0.60869297441416
  H   3.58428886025853     -2.10433317898382     -0.01002282934309
