21
Coordinates from ORCA-job 8659optt
  Br  1.03307090700150      0.13818993817246     -0.19824217138137
  C   2.89115584715878      0.18513203970671     -0.08652717968579
  C   3.61176729280577      1.32017105015994     -0.00006991282179
  C   3.06418931561358      2.66770655287364      0.03496247980776
  N   3.78417785343095      3.71996599833688      0.10218042318768
  C   5.17390956817548      3.59314637383641      0.14456772904210
  N   5.76078154841958      4.85880744254884      0.20631949227259
  C   7.09141435269731      5.12821455996320      0.25276091598993
  O   7.98186625895179      4.32227372719810      0.25370981666753
  C   7.36424745200085      6.58305646731750      0.30421999117145
  N   7.58036925663578      7.70649367165387      0.34322103725036
  C   5.83808778116455      2.42210528464600      0.12986779643214
  C   5.06124917379325      1.20626984035263      0.06008783744597
  N   5.69959231443637      0.08796383655096      0.04916173744240
  O   4.95256847616575     -1.05673470140727     -0.02068946858554
  C   3.58123790083798     -1.10786764435052     -0.10023640693115
  N   2.97712622801998     -2.20786934714674     -0.17507776941752
  H   1.98690976617424      2.79034851740275      0.00416100727393
  H   5.10303074483360      5.62667501140473      0.21162780524440
  H   6.91273645886425      2.35709214682806      0.16806049370347
  H   3.63051150281857     -2.98914076604817     -0.17006565410853
