25
Coordinates from ORCA-job 8668optt
  Br  1.28160950752617      0.16535326505510     -0.24935183657410
  C   3.11500999074045     -0.18275853628274     -0.35823552501696
  C   3.69169351890378     -1.34733309652208     -0.01617748639821
  C   2.95173363475697     -2.49368186183313      0.45650533335524
  N   3.43552898015279     -3.66556329722276      0.59018590830757
  C   4.77039214744915     -3.89401404005404      0.21077462200509
  N   5.27065742579770     -5.05170542260312      0.18553891631941
  C   5.68183432492588     -2.74154911643434     -0.18579890744200
  O   6.84245031272011     -2.91522714848050     -0.45978925793662
  N   5.09495676500421     -1.49317821112582     -0.17217144901463
  C   5.83301659801780     -0.27876674100203     -0.33123085322373
  C   7.31542605971200     -0.22170804107405     -0.06053483406194
  C   8.17726631488030     -0.43604017878850     -1.30109802328167
  C   8.25835580114401      0.76980036645769     -2.19224781621840
  O   7.79926423471772      1.84975497273406     -1.93038285001108
  C   5.16543505170383      0.82677822133821     -0.63047201965832
  O   3.78975001172754      0.87434461469937     -0.82255175316872
  H   1.90559655469167     -2.34078760302769      0.69985983395621
  H   4.55862394900285     -5.72024012465534      0.48582462562814
  H   7.57085762894885     -0.95790307711143      0.69641536230736
  H   7.52969723049787      0.76746063222997      0.34395062791436
  H   7.83639104086808     -1.29135362805345     -1.88827203167381
  H   9.20665261061679     -0.68234409408091     -1.01686011244306
  H   8.79977358060766      0.61632929053706     -3.14498697772988
  H   5.63002672488570      1.79233285530049     -0.74389349594023
