27
Coordinates from ORCA-job 8670optt
  Br  1.12177163609261     -0.31181276970332      0.36402872710245
  C   3.00760028629458     -0.16786004153091      0.17765999413906
  C   3.67380903258758      1.02229866968794      0.47298265934535
  C   2.98846486075371      2.28668023005911      0.92360014074580
  N   3.13339911817598      3.36185275712058     -0.04396627706425
  C   4.32480954105950      3.80695575686791     -0.51342007153733
  N   4.22500088556508      4.86633612522919     -1.44670440292586
  C   3.12426370959250      5.49728833222161     -1.92795221629451
  O   1.97327971801397      5.24830780046558     -1.64558007013244
  N   5.51724449790858      3.44024644758606     -0.26352012969551
  C   5.80528814537035      2.34392459432559      0.64737238328508
  C   5.06808239886491      1.06473176313180      0.33136367808037
  C   5.74928567053056     -0.06007087539933     -0.10797390618217
  C   5.06630397524791     -1.23380708770503     -0.39773471992498
  C   5.81916842840341     -2.42802917941912     -0.85480969248199
  O   5.31594787318178     -3.48432566096683     -1.12394184176137
  C   3.68685024812810     -1.29309715685106     -0.25389058320920
  H   3.38678261292715      2.59194719324449      1.89459829504785
  H   1.92398833189138      2.12319045626648      1.05463912666390
  H   2.30551139632225      3.79298758990335     -0.43379803926357
  H   5.13141973632890      5.16759636630308     -1.77180923981340
  H   3.38834023283533      6.29741121669604     -2.63455073119464
  H   5.60980300647744      2.63899096227137      1.68448195837251
  H   6.87545504440739      2.15090193054197      0.58360819448052
  H   6.82744651491676     -0.02340474834354     -0.22343042619457
  H   6.91325957895172     -2.28241841972846     -0.93651610587580
  H   3.16642351917051     -2.21382225227460     -0.48073670371130
