26
Coordinates from ORCA-job 8680optt
  Br  1.36361297326417      0.57572129838177     -1.91011357568065
  C   2.98545056445594      0.34365493234308     -0.98032675903253
  C   3.39522624146506     -0.81504506405838     -0.38665869700119
  C   4.67204767593755     -0.64132046822413      0.37514445546747
  N   5.34695376192774      0.44267762496224      0.42647297224274
  C   4.92877522785505      1.58553835488829     -0.24122820307288
  N   5.54015023022320      2.69089726007654     -0.28843545604569
  N   3.69979371287603      1.47998498220566     -0.90629709190091
  C   5.35133039650273     -1.82337030086126      1.20735144874396
  O   6.42726276454254     -1.72842832893007      1.69661394805580
  C   4.33971614033409     -2.90682946516471      1.08252044087360
  C   3.01965304772817     -2.42870740844771      1.72991768987496
  C   2.18868393020065     -3.00167168804142      0.61142688593903
  C   2.81526465459858     -4.44213865937346      0.53020535351058
  N   4.15514912006053     -4.34287408646360      1.23487981913215
  C   2.51952865834488     -2.08412316855061     -0.59591073365571
  O   2.09020342634101     -2.32885631852004     -1.68957791446414
  H   6.40275132791230      2.62018591356151      0.24430727274890
  H   3.36189740106314      2.32250910477376     -1.34970521856563
  H   4.26332433167247     -2.78277135177213     -0.00613448722410
  H   2.89789005584248     -1.36373329098259      1.89164707594821
  H   2.91900911884320     -2.95512438483950      2.67632024983768
  H   1.10584171274423     -3.04102986670345      0.72501258127540
  H   2.92351088922411     -4.76222514554834     -0.50845282190925
  H   2.18030669801074     -5.15281389464792      1.05510179822922
  H   4.85566593802933     -4.86510658006352      0.72191896667298
