26
Coordinates from ORCA-job 8690optt
  Br  1.18764969345587      0.23843065406695      0.07403770131200
  C   3.04218222876616      0.03994578661204      0.01578519259964
  C   3.65938611335182     -1.14845144433175     -0.01349280099730
  C   3.28460187458784     -2.52606227456297     -0.02337382878400
  N   4.30680471285430     -3.30960716305058     -0.07129673760252
  C   5.48547522785733     -2.52236417507414     -0.08839930461384
  N   6.68301890556831     -2.91872330134808     -0.12957150480935
  N   5.07516974367481     -1.17139105149402     -0.08307128273492
  C   5.72049369536963     -0.00286463471996      0.28375749497507
  O   6.99111782342808     -0.14961034689136      0.59864355850875
  C   7.69437352162404      1.02907100636567      0.99259143389110
  C   9.08597523435923      0.57352205376317      1.38845002716822
  N   9.87900252605675      1.70023657122224      1.83793607493638
  C   9.71307644657673      2.22470200261306      3.07546169783201
  O   8.90673193652783      1.82061363460303      3.87999735500994
  N   5.14318258360948      1.13618840006904      0.34150236008321
  N   3.79350418579701      1.17881423813998     -0.03457721306612
  H   2.26655987819905     -2.89132525824821     -0.00524577463580
  H   6.68448816424981     -3.93559912905345     -0.13093623207532
  H   7.19050323277318      1.49975808183761      1.83667911706963
  H   7.71872933307080      1.73228400711722      0.15771848447579
  H   9.58382400338555      0.09423570617744      0.54760921968905
  H   9.00573427437838     -0.14928727545107      2.20026423943680
  H   10.56927816742690      2.10635506033696      1.23047627567734
  H   10.39588713709285      3.06374964917065      3.28328267136012
  H   3.35624935595812      2.04137920213053      0.24777177529411
