22
Coordinates from ORCA-job 8691optt
  Br  3.16571140265296      0.33769479348194     -2.54603521142453
  C   4.48724518596606     -0.06801914019941     -1.28410292099739
  C   4.49465033747806     -1.19591361659972     -0.57705405669083
  C   3.71422893582947     -2.41999814950955     -0.52324808939179
  N   4.10052983664331     -3.19855145986552      0.41648555969137
  C   5.13739254465030     -2.54145034170376      1.14117614388351
  N   5.71428037362573     -2.90897845931173      2.19069742591323
  N   5.43010149953757     -1.33568015464382      0.45476201201147
  N   5.84252295558122     -0.22545931235204      1.11428595040460
  C   5.85613998223935      0.85720183465064      0.45345885365056
  N   5.47576373355061      0.89055254042211     -0.97933669636881
  N   6.02267052329670      1.42162132313650     -2.17778975758295
  N   6.93978222521774      2.24893113198410     -2.19650270817609
  C   7.39111813629307      2.51010221058789     -0.87409532673112
  C   6.54040494329248      3.06833240309969     -0.02249894460680
  C   6.26920897983419      2.15406503581469      1.12478529989794
  N   6.31981019479091      2.26256723403880      2.37367857739630
  H   2.92332660643202     -2.67693537392552     -1.21604959153812
  H   5.32429847323006     -3.79637609776834      2.50022504409399
  H   8.21086270028944      1.87159142444709     -0.55239508098593
  H   5.68706197485505      3.60743482990839     -0.42492669824473
  H   6.64788845471364      3.19126734430756      2.63848021579613
