25
Coordinates from ORCA-job 8692optt
  Br  1.01183986346319     -0.25758625394656     -0.00738498088211
  C   2.87870653160379     -0.11104435059843      0.00865808487980
  C   3.65275691149013     -1.21992913080842      0.04403265808846
  C   3.29342100556621     -2.67092782594678      0.08415492361015
  N   4.60054069214517     -3.28869890374317      0.22575785884637
  C   5.63961644280605     -2.39012596682380      0.08665923427920
  N   6.88488759630578     -2.51645571998171      0.01977790617051
  N   4.99741166013356     -1.11346249898273      0.04714946606417
  N   5.67972989486319      0.02123609337129      0.01677982814363
  C   4.99735119137005      1.13108028343607     -0.01927846302842
  C   5.76839257718443      2.35774176119338     -0.06057241043735
  C   7.14309522457902      2.52724706119621     -0.08356303090109
  C   7.39178768379772      3.90981076148246     -0.13029638420287
  C   6.16545205422739      4.54609728945294     -0.13415884631142
  N   5.19856450190426      3.60391708517348     -0.09164316418523
  C   3.50378255091432      1.18804777048025     -0.02120158949386
  O   2.88572611149359      2.24318675759289     -0.04628949806833
  H   2.77767120272761     -2.96127429642211     -0.83549342800523
  H   2.63578661041089     -2.88672759105866      0.92842648709267
  H   4.74984612379528     -4.24174824905490     -0.05618971182405
  H   7.17454276632676     -3.48782951758916      0.07997758235382
  H   7.86107720607965      1.72484033587153     -0.06843366420019
  H   8.35250499461211      4.39528956090701     -0.15919533788184
  H   5.91887501219536      5.59378498098330     -0.16332953620501
  H   4.19663359000444      3.73253056381560     -0.08634398390178
