23
Coordinates from ORCA-job 8700optt
  Br  1.15933498428158      0.33873378133119      0.15081597319582
  C   3.01982600714862      0.07825341168506     -0.00041365426675
  C   3.55912082761107     -1.16990741518542      0.00102306576835
  C   2.84951282298413     -2.42919047019590      0.09571782885133
  N   3.44703796656889     -3.55278894165982      0.06269723621807
  C   4.86779546655532     -3.59934639845080     -0.07028349633852
  N   5.46708981303982     -4.71537246352502     -0.13243728280930
  N   5.62142149995126     -2.41917988858033     -0.13460259029471
  C   4.98992431650998     -1.30253076671806     -0.10585318521165
  C   5.70811138556957     -0.04098614690371     -0.18438385376330
  N   5.14430800936575      1.11041585319191     -0.19602781825927
  N   3.79133376710391      1.18701505408836     -0.13168389997509
  C   3.29406519005177      2.54410044290926     -0.08102668741223
  C   2.98304006445336      2.99050689696870      1.34321228043886
  O   3.15407730500959      2.28662649683970      2.29707360843653
  C   2.46660992142406      4.34853229324190      1.42968456749318
  C   2.04910973509244      5.47085188838456      1.43698810428741
  H   1.76690283310993     -2.42663753918670      0.19756538124413
  H   4.77158368630787     -5.45696446697643     -0.07327930548150
  H   6.78918178733813     -0.05298762822734     -0.24581694943748
  H   2.40564049416822      2.66663700146960     -0.69970676952561
  H   4.07858452481987      3.18475414651499     -0.48169866401514
  H   1.67638759153485      6.46846485898429      1.46643611085685
