22
Coordinates from ORCA-job 8702optt
  Br  1.17599032659228      0.37987650125649     -0.19074380465777
  C   3.03129791046332      0.13066729688085     -0.05972648579128
  C   3.60969746948215     -1.09213897556523     -0.04652045192930
  C   2.96244955554519     -2.39446089990610     -0.12548662075670
  N   3.61399532416392     -3.48520565033326     -0.14277224692809
  C   5.04237869740092     -3.46460299887569     -0.09678704040925
  N   5.69282833360934     -4.55064064679025     -0.13889669843332
  N   5.73311950264501     -2.25463951378823     -0.00339478675158
  C   5.04672646660149     -1.17160586980590      0.03047124536154
  N   5.72065598642353      0.03314453392738      0.12608910519418
  C   7.16721885878304      0.00161487780353      0.14807697663177
  C   7.76408981427366     -0.46789415325629     -1.17336334687950
  O   8.91160638802072     -0.75571695856275     -1.30065450694351
  C   6.83097425278570     -0.45460193225253     -2.32932138924788
  N   6.06968576830397     -0.38443819789281     -3.18251003970535
  N   5.14231565750235      1.22881332500508      0.10090465198801
  C   3.85517764739116      1.29830803769294      0.01599537005032
  H   1.87691738423157     -2.43240860089899     -0.16949528685757
  H   5.03124558554157     -5.32180602193205     -0.20610642393421
  H   7.52711821639557     -0.67544395773649      0.92136340043281
  H   7.51155316817735      1.01716263864247      0.33678592448606
  H   3.42395768566606      2.28901716638786      0.00009245508062
