22
Coordinates from ORCA-job 8704optt
  Br  1.57272816548301      0.38487861554493      0.50001184685429
  C   3.30391465296280     -0.05957509780324     -0.05269531295893
  C   3.66621365593602     -1.28932781649771     -0.46177185697350
  C   3.24743662000688     -2.72041688659665     -0.25399546118779
  N   1.97771554116640     -3.08026335712438     -0.06503777013886
  C   1.48560925128444     -4.37837925738774      0.22118792570186
  N   2.13419217336955     -5.44493466439412      0.31923567129580
  N   4.28322754662424     -3.55533504009038     -0.20318645997703
  C   5.36987546614111     -2.73584159214307     -0.38557729955986
  C   5.03608340012820     -1.44437619686322     -0.73336636246680
  C   5.98417250030261     -0.57081582733652     -0.22606035567504
  N   5.72828278625129      0.62824456622843      0.17868801269793
  C   4.37552859337547      1.03672991792780      0.06344766223311
  O   4.04157028276566      2.18585193954139      0.16855175503989
  C   7.18353133107874     -1.46548973820464      0.08369950160938
  N   8.35319521333773     -1.22901207970532      0.45354712009474
  N   6.67348893337595     -2.80815959835366     -0.04419585290213
  H   1.30285157020942     -2.32590382419161     -0.07982984319434
  H   0.40650356508321     -4.36337431135115      0.35656353026939
  H   3.13342903910157     -5.30771115547065      0.17103231981171
  H   8.49929575514624     -0.22177792194860      0.52780399131299
  H   7.18515395686942     -3.61501067377987      0.27594723811319
