23
Coordinates from ORCA-job 8705optt
  Br  1.23286722897563      0.06064194465620     -0.64894010362351
  C   3.00562399953053     -0.21755083113981     -0.13416985842280
  C   3.44468198716540     -1.38312790982460      0.36549561265089
  C   3.13482830460927     -2.85222413213308      0.47559616456946
  N   1.87144385751404     -3.32642634417458      0.44991902117738
  C   1.46723514623446     -4.67146654889752      0.53726461696443
  N   2.18517730142506     -5.69313709559190      0.65868863969879
  N   4.22338013110731     -3.58661775480972      0.58484659409984
  C   5.28195895776584     -2.66809853731319      0.57811786779871
  C   4.83870003217971     -1.41402330803350      0.55275819764943
  C   5.76850375518017     -0.48401158473872      0.04453070457527
  N   6.96579410746180     -1.17466291827101      0.03103832478875
  C   6.74608514973213     -2.57889325331347      0.27974548156794
  N   7.58174559031768     -3.51470368376907      0.21709755188513
  N   5.41246482337869      0.66274127290625     -0.41136426860370
  C   4.01196679298023      0.91452341211705     -0.36690770200574
  N   3.52615083279128      2.06085460687446     -0.59417833437349
  H   1.14464993957795     -2.63415672271433      0.33877888074529
  H   0.38310278338808     -4.75653875968315      0.48836132093500
  H   3.17883778468650     -5.46366693845102      0.68934324759745
  H   7.82183525028986     -0.82260054193224     -0.36520650306559
  H   8.51769589469924     -3.19389927106528     -0.02692825061545
  H   4.28627034900910      2.72104489930224     -0.75988720599348
