28
Coordinates from ORCA-job 8713optt
  Br  2.84806737948899     -1.51436924740093     -2.03346415038748
  C   3.03388984354863     -0.40043639228841     -0.50678816453482
  C   2.47711216552597      0.83611643785231     -0.46065598291621
  C   1.61940005320493      1.32708196191257     -1.62422220071611
  N   0.45427386323294      2.09513334451391     -1.21517197723544
  C   0.44265976493826      3.45865775167367     -1.37863959546949
  N   1.22261280568893      4.04070004165938     -2.19643626426102
  N   -0.39713603048961      4.16907183421820     -0.47195234921607
  C   0.40334942407530      4.64649102592442      0.67689648493838
  C   1.13171247720174      3.48432411370349      1.34010531819448
  N   0.71484140455584      2.85089823374478      2.36124002808102
  N   2.25449740218873      3.06419129316328      0.64795953900849
  C   2.69544961653783      1.71432401946792      0.69615690490211
  C   3.23330672766184      1.28706460963170      1.84698419375456
  S   3.83412697784803     -0.28788860020293      2.13724026826156
  C   3.86969255468519     -1.02585805123346      0.53073292441137
  N   4.52392098929571     -2.09057759909303      0.32046131021524
  H   1.30021935430862      0.47284512888043     -2.21083641468587
  H   2.21053116031373      1.96668041667910     -2.28218198914308
  H   -0.00166969350511      1.75859758194155     -0.37960493625259
  H   1.03065258978819      5.03802201287068     -2.20567450443097
  H   -1.14798182004721      3.57643587159809     -0.13191673084684
  H   1.10695831727398      5.39778196454397      0.31688668971858
  H   -0.26751534914735      5.11908843344812      1.39133467027052
  H   -0.12341532109715      3.28514935008961      2.73675243010325
  H   2.45220975820207      3.55746385004939     -0.21185085837772
  H   3.29853587796252      1.95517835210390      2.69420316258842
  H   5.05369770675846     -2.39316773945174      1.13544219402572
