27
Coordinates from ORCA-job 8716optt
  Br  1.71640361234493      2.16771066304448      2.54587923377315
  C   2.59471232671345      1.45730595719499      1.02286828972866
  C   3.41185359186153      2.21667265272193      0.27075365358771
  C   3.26225511607270      3.72411263709210      0.14995507330879
  N   2.09536353856907      3.98518848042315     -0.69037927656389
  C   0.81489129223487      4.00314637847135     -0.09286581136963
  N   0.44459052620489      4.85599966924538      0.77141205762176
  N   -0.10537658731120      3.08150601850770     -0.57290101613086
  C   0.16035637027775      1.68503498033906     -0.86042900400789
  C   -0.19519981143985      0.75805635597166      0.31832036412747
  O   -1.30617143312715      0.77329709908448      0.78298278731692
  N   0.76728901717061     -0.13638040669331      0.76118545686345
  C   2.14308077695934      0.15721272664024      0.54756118690470
  C   2.87750576766529     -0.61240105796071     -0.26889756307284
  C   4.20446573820319     -0.22682394966932     -0.74333082191153
  N   5.14231246316037     -0.95729390553028     -1.17023347934471
  S   4.42095839763430      1.53137505688400     -0.96012310165177
  H   4.14724999082038      4.16804190635466     -0.30444925053728
  H   3.10903649290361      4.18210216605749      1.12448820657074
  H   2.12468267319004      3.46820625344751     -1.55954076236372
  H   1.14805830626010      5.58044211301664      0.88474864857413
  H   -1.01470752323773      3.23891781031957     -0.15543563039229
  H   1.18227997732974      1.55557745082583     -1.20757343481201
  H   -0.49930802783882      1.36472685699718     -1.67022912054279
  H   0.49462250702819     -0.63377554362622      1.60018037240352
  H   2.45117226015277     -1.52709262884997     -0.66411325974361
  H   4.90262264019761     -1.94586574030962     -1.09183379833619
