23
Coordinates from ORCA-job 8717optt
  Br  2.28523226710232     -1.57233664688556      0.97285025514392
  C   3.03624273558348     -0.11001439003966      0.05219942938971
  C   2.58178767501456      1.15702276836679      0.08900885062143
  C   1.45963917240444      1.54894447831701      0.93917931019233
  N   1.22323449266427      2.67405556023673      1.46635890618800
  C   2.03769804989568      3.80086800139544      1.37576045217726
  N   3.03367407612043      3.98113325371244      2.11786569843339
  N   1.47613299156738      4.78997840176064      0.48997438390888
  C   1.08413115435047      4.41319128720894     -0.76721000479487
  C   -0.21199420721785      5.00930566259021     -1.24818618221690
  O   -0.87346100343625      5.72829618165594     -0.55539517250067
  N   1.69970680697292      3.66078835738557     -1.58466937337326
  C   2.98765606090203      3.18606884959895     -1.36595028232766
  C   3.37821096958915      2.08211228344536     -0.71918503755953
  N   4.76978117467534      1.77522387948284     -0.83462661212180
  N   5.15346737460991      0.61256988337600     -0.79148997581448
  N   4.18610654889652     -0.39107188356451     -0.63055375535558
  H   0.73950077469413      0.75992999004301      1.14900553623375
  H   3.43184580163754      4.90408815828815      1.95778090742518
  H   0.79536529080871      5.39839134770191      0.93680318434173
  H   -0.48084880941896      4.73592379531783     -2.28003653112093
  H   3.76165480689000      3.73831293311414     -1.89263085155151
  H   4.61923579569372     -1.29178215250825     -0.49785313531838
