23
Coordinates from ORCA-job 8723optt
  Br  1.58912881964505     -0.98016644913250      2.44909431643514
  C   2.73071799094819     -0.28852223689092      1.13779162820080
  C   2.94233970653145      1.02820576814239      1.01028446581921
  C   2.27053383009005      2.01844124535350      1.88986983803640
  N   1.55980788536034      2.95889037696223      1.45048188550550
  C   1.28644949022534      3.04891813915936      0.07171054638906
  N   0.24105532444669      2.52943818743524     -0.39847528786226
  N   2.18063600830383      3.86638244673445     -0.64439414835380
  C   3.54056458012362      4.01240061439814     -0.46455774885125
  O   4.12495175610822      5.00999545590129     -0.80849069466629
  N   4.23121140327566      2.93180347713240      0.07518541569291
  C   3.88245098389437      1.55739514776600      0.00123563059880
  C   4.50754802201274      0.74148259259395     -0.85753193260253
  C   4.27912595252869     -0.70276067705106     -0.85257443207236
  N   4.75586399537816     -1.52440008407739     -1.69231980697367
  C   3.38277092157416     -1.28530200644469      0.23965162853589
  O   3.21862906664376     -2.46316506992417      0.36411798374435
  H   2.41179459567382      1.92505197518411      2.96464661560668
  H   0.15908997543003      2.70041460825476     -1.39839607429337
  H   1.77851222640636      4.59859905942961     -1.21152996748722
  H   5.22332525354244      3.11505482496792      0.01342237359838
  H   5.20827550506101      1.14216029432161     -1.58110625085744
  H   5.34121670679595     -1.04731769021624     -2.38111598414294
