21
Coordinates from ORCA-job 8731optt
  Br  2.97032906070046     -1.10086519503039      1.37624076866187
  C   4.37001914435968     -0.36477454782322      0.39465695961529
  C   5.66609039218003     -0.27520900977073      0.77327841496693
  C   6.40172052618690      0.54973182678796     -0.19410090051464
  N   7.17524683521464      1.52827312514370     -0.02667353867586
  C   6.09190456257861     -0.02494721053516     -1.53450490103844
  N   4.89377988309621     -0.26244586131971     -1.88445174445333
  O   3.97893113015542      0.05757979632957     -0.82104580212478
  N   7.25394420353848     -0.56608804172655     -2.08885242254127
  C   7.37689838294994     -1.79324585403327     -1.78934960296462
  S   8.98780086859609     -2.48193480056202     -1.49559345485306
  C   9.43264819853028     -1.24879289975921     -0.29495225408800
  C   8.73132348681906     -0.93181960349157      0.79105081408232
  N   7.61466295112620     -1.65601054000071      1.29971896302766
  C   6.34395915486232     -1.22995036301964      1.69485679570874
  O   5.78050727059762     -1.77690409745189      2.61031585007796
  H   7.25000658409150      1.76275971622207      0.96570669647713
  H   6.52963575913260     -2.42343242814157     -1.50788090845677
  H   10.32266000950518     -0.67730755730696     -0.51990296568986
  H   9.07154258004581     -0.08557108756513      1.38152054366402
  H   7.88038901573291     -2.46304536694559      1.85396268911873
