22
Coordinates from ORCA-job 8734optt
  Br  1.30679333620687      0.31638546638289     -0.67688866172647
  C   3.10112122008362      0.02964968974477     -0.19274332799661
  C   3.63749060893576     -1.19906073730201      0.10746724064890
  C   2.93632330287039     -2.48175626144499      0.20120129916261
  N   1.70617205079425     -2.77086235036144      0.33749361203637
  C   3.85471357530501     -3.63361515183284      0.15311417975582
  N   5.10873315952859     -3.60735759642449      0.32210850866191
  O   5.69058627516045     -2.36712290130058      0.56410067873026
  C   5.06352969099474     -1.21037169686380      0.29582622679688
  C   5.85501911661755     -0.08482555767526      0.26423400057880
  C   7.32952829250455     -0.11223234714418      0.34741700435263
  O   7.96818697639104      0.87548239463864      0.65065773630555
  C   8.05618511188805     -1.31556306835577     -0.03858700505608
  C   8.73775428597384     -2.23543030379117     -0.38863343436415
  C   5.21412901104589      1.22331620855062      0.12548614284502
  N   5.66018286625571      2.40361229689550      0.20074610932217
  N   3.83542975479394      1.13458943804097     -0.20328119708209
  H   1.10881245167743     -1.95431773898770      0.42207477429799
  H   3.42318013695118     -4.61604953867097      0.00221793615610
  H   9.33116974270918     -3.06395356711218     -0.69614678931064
  H   6.64655023478490      2.40191605092666      0.44065541261696
  H   3.41140879852692      2.03256727208734     -0.40152044673194
