23
Coordinates from ORCA-job 8736optt
  Br  1.12710603565818      0.42784690507850     -0.44927338193727
  C   2.96304936719442      0.19948079877857     -0.16195694497067
  C   3.49165850854221     -1.00416781300734      0.10166505734898
  C   2.73843623586629     -2.29099095243694      0.16282555668834
  N   3.64851662201854     -3.37226134019060     -0.18679796229858
  C   4.90171966605543     -3.47940980664556      0.39006169857683
  N   5.59842060177291     -4.51122814440981      0.56672279056792
  O   5.44472960366723     -2.29307830912344      0.78166596563231
  C   4.89963341453343     -1.10570665937845      0.37337456836219
  C   5.66180852881094     -0.01287591390586      0.31421479614663
  O   5.14061606694943      1.19720926205288      0.01295084669308
  C   3.80016521793599      1.40214999140189     -0.22998000113027
  N   3.35292137706439      2.54661534670511     -0.49868330414451
  C   2.15442850056890     -2.52863483204081      1.56207608380240
  O   2.38166037243434     -1.86110368198504      2.52778758234429
  C   1.25147662808254     -3.76045114118485      1.69230385601983
  O   1.00837061793161     -4.46624775104423      0.75686128527310
  H   1.91722205916179     -2.29436423831792     -0.55394831137147
  H   3.20473360250518     -4.25055460428658     -0.40799031136226
  H   5.09999443382092     -5.35726988780062      0.31111103556503
  H   6.72191438908379      0.00904131768053      0.51372309269927
  H   4.09579355427779      3.24180025431089     -0.50417472672512
  H   0.84462459606373     -3.92379880025033      2.70446072821997
