26
Coordinates from ORCA-job 8737optt
  Br  1.14176692080362      0.37892477242172     -1.10475813262131
  C   2.73860256094813     -0.02523269606703     -0.19690029595251
  C   3.22977126397881     -1.26019462260341     -0.02232854994529
  C   2.48125369910082     -2.47293884870872     -0.51837787607624
  N   3.33885110154763     -3.58661033826922     -0.90647392415367
  C   3.80570424107895     -4.43784682349186      0.07927788712690
  N   3.97133713930181     -5.68611001099223      0.04585765531021
  O   4.14641355974120     -3.75806137099290      1.20870340448990
  C   5.09859929128758     -2.71666675600107      1.00705712795052
  C   5.96150467021188     -2.63141031843878      2.25137924008954
  C   6.87661934090732     -1.43362657313662      2.12606846096203
  O   6.13880750507275     -0.21944957101928      2.01730017681205
  C   5.02798879137864     -0.26183087096537      1.26504235122766
  C   4.45778723242597      1.07275331271866      1.05016268968438
  O   4.88921840610168      2.10288791168801      1.45959889551846
  O   3.30977648146759      1.08556486600561      0.28398904328826
  C   4.44992624522705     -1.37258718833638      0.74791846383646
  H   1.90654183161874     -2.19135186023648     -1.39665438314879
  H   1.76537386689256     -2.78608798630481      0.24868122440541
  H   3.05855809554202     -4.05405233534942     -1.75368729494019
  H   3.58579181446792     -6.09228606627591     -0.80214327653398
  H   5.72313620076038     -2.98240589205878      0.14810132693410
  H   6.54213227178526     -3.54638825643832      2.36041519214138
  H   5.31747959463687     -2.52626435588524      3.12654201390734
  H   7.51701706302941     -1.52231143774275      1.24217898346190
  H   7.50904081068535     -1.31441668351940      3.00204959622546
