22
Coordinates from ORCA-job 8738optt
  Br  0.94672312519683      0.80684981764821      0.05104262659477
  C   2.72556360568328      0.19567835403874      0.03231424249757
  C   3.10689789836261     -1.11326621974853      0.06237899119364
  C   2.07703456559281     -2.14873031699004      0.16006739289821
  N   2.17561895587431     -3.41635828633748      0.13399652308247
  C   3.37779883743921     -4.09601314698217      0.02848357048030
  N   3.61322770350147     -5.08515473592656     -0.69851953093014
  O   4.39134566059101     -3.70999314069437      0.90608139069259
  C   5.04464913682045     -2.58175884896072      0.60620038971048
  C   4.54921846779387     -1.43710773220642      0.09555508846050
  C   5.58542415763591     -0.40884561586424     -0.23274144698043
  N   6.78934577478039     -0.59620594917553     -0.59944772244022
  C   5.04927342185986      0.92775704378204     -0.10993882871383
  C   3.72683397803391      1.22630170615299     -0.01631313931000
  N   3.57275631729251      2.59930776932780     -0.02575907056812
  C   4.77810763466104      3.03628261975930     -0.12232482447544
  O   5.73330277200371      2.08415753317678     -0.19053559029425
  H   1.06500638073588     -1.76907689695013      0.25184214684728
  H   2.77925582544572     -5.32302062497492     -1.23213505488910
  H   6.09750707952853     -2.65030691146219      0.85864835586254
  H   6.98883469189235     -1.58268665317241     -0.75589737002348
  H   5.11227400927429      4.06019023555986     -0.14999813969533
