23
Coordinates from ORCA-job 8739optt
  Br  1.76784370269610      1.89422611898210      0.31976294440223
  C   3.41855123988012      1.06308331139188      0.08140876781477
  C   4.53479309559524      1.69680282047419     -0.29457364967164
  C   5.80507208574699      0.97196904194211     -0.34570692870650
  N   6.72743255020194      1.62549781988829     -0.90445258668268
  C   8.05156375989379      1.73520613465154     -0.57194355560569
  N   9.10492544909495      1.22878555515553     -1.02416205813725
  O   8.14008252943395      2.69305883268144      0.40514624587805
  C   7.13728265235303      3.57102721753941      0.72952355573459
  C   5.85022165955108      3.78064401682350      0.40738551299267
  C   4.75813265197442      3.17637569097706     -0.42642512324399
  N   4.01708167791251      3.96490173649569     -1.07912723927772
  C   5.92534195163516     -0.35565408067143      0.34165083927825
  N   6.98263924063872     -0.96690056148271      0.65306482394813
  N   4.69470852756975     -0.95922829586879      0.56052310988222
  C   3.44161881050725     -0.40134845800405      0.43409697629612
  O   2.44538978983752     -1.03716521040980      0.64582861172990
  H   8.89258542300284      0.52033633724891     -1.72132688931552
  H   7.57401081462643      4.27646745701535      1.42382228681535
  H   5.48447748605559      4.69054110170140      0.87101584608147
  H   3.27035574535320      3.47041854116012     -1.56573304031912
  H   7.82560663448974     -0.44656794243893      0.42287332643324
  H   4.71628252194962     -1.91147718525283      0.90434822367312
