21
Coordinates from ORCA-job 8740optt
  Br  1.05648018621072      0.06701175346867      0.56946277259183
  C   2.93019366004868     -0.01333580239046      0.36405721779462
  C   3.62879302091911     -1.12222123606885      0.08013484256115
  C   3.05211792268972     -2.45931062154967     -0.21884858097063
  N   1.96597284333367     -2.73143566357141     -0.80199021414767
  C   3.88606898826547     -3.64803472301194      0.20332990133548
  N   3.45114321586533     -4.80581334727399      0.38092329634699
  O   5.22287959096355     -3.44606285190825      0.39978383522561
  C   5.80159165748244     -2.24004757363323      0.16083783986203
  C   7.21870457049628     -2.29899304543517      0.10863424935015
  C   8.41332867400928     -2.37359053579791      0.06948472238483
  C   5.09701749253462     -1.09086075250071      0.04361114097024
  N   5.79839858393842      0.08651716698943     -0.15395516693712
  C   5.28522086530686      1.21757128377649      0.04812261238424
  S   3.64127199126010      1.55947492918180      0.64102522442630
  C   6.08366888837073      2.48146710036188     -0.18195807459492
  O   7.19035580640988      2.48240053065659     -0.62099319949052
  H   1.44839089891401     -1.90049132546672     -1.07752819356733
  H   2.45247254300384     -4.82112048403638      0.17683794746122
  H   9.47527704151621     -2.43003806373895      0.02855139709087
  H   5.55565155846103      3.41491326194881      0.09047642992263
