21
Coordinates from ORCA-job 8743optt
  Br  1.51857076963698      1.31574631193405      0.41464304368631
  C   3.19634736606490      0.52154841723501      0.18092338282443
  C   4.28380438417499      1.23649450972727     -0.11948427710478
  C   5.62895160777265      0.66519035442566     -0.21491413302749
  N   6.43828435982970      1.36862035543054     -0.87436321747213
  C   7.73722620379622      1.70249403377009     -0.56740114443361
  N   8.84761943062458      1.42468399476736     -1.05765824760911
  O   7.67636439157610      2.67225623337476      0.42147203953794
  C   6.55323411338223      3.24906008407062      0.95678384204919
  N   5.32768407173892      3.27695463218278      0.69367338374667
  C   4.41698539152345      2.73753111762177     -0.22026467877123
  N   3.75148447856431      3.49552697766709     -0.97352498477520
  C   6.03875555944577     -0.51514345168137      0.63582806477394
  O   7.15332417691079     -0.68021720051962      1.02345578678655
  S   4.76130839715176     -1.71874487076745      0.92821626007429
  C   3.24172389458904     -0.95566351642850      0.34970598187284
  N   2.20973040584557     -1.65186042723175      0.17882627266463
  H   8.77001987782794      0.68854794877860     -1.75286537288926
  H   6.90362037162886      3.81930571857210      1.81278556774588
  H   3.09172772072075      2.96371345548295     -1.53688314488953
  H   2.36423302719441     -2.65004467841196      0.31804557520967
