22
Coordinates from ORCA-job 8758optt
  Br  1.78812825443717      0.91918007698406      1.92285790349778
  C   2.66152156938547      0.08306249829995      0.50066846353302
  C   2.70770472309053     -1.23540725157270      0.29678600601421
  C   2.14302377515075     -2.30893877309214      1.10629445559673
  N   0.93319697083948     -2.34686211907631      1.47537914172935
  C   0.40975400995818     -3.53813647550255      1.96204552401604
  N   -0.36591525022244     -3.68350237742765      2.93850452413699
  S   0.76198542226844     -5.11790916968565      1.12954140281034
  C   1.85148524036076     -4.92993758843472     -0.28926171791724
  O   2.61319530821685     -5.81174210773121     -0.52209462900587
  S   1.68566328208486     -3.50076063701018     -1.40868280479239
  C   3.42817059238784     -2.96056485751521     -1.29877725721133
  N   4.43067639257983     -3.61914520505103     -1.65485647794226
  N   3.50344931022588     -1.65586157671982     -0.80354228607154
  N   4.71816078264810     -0.97938563331943     -0.99351478044143
  C   4.62548928772458      0.26275337003841     -0.77575653932647
  N   3.45810410716342      0.88221240407251     -0.31645497434104
  H   2.83250346203425     -3.14727533884265      1.26099437021679
  H   -0.54078128568894     -2.78711610328919      3.39280690301222
  H   4.17254660962688     -4.50938278998706     -2.07099940563096
  H   5.49229212179961      0.89119217128879     -0.93152339313577
  H   3.51664531392844      1.85952748357384     -0.07641442874717
