20
Coordinates from ORCA-job 8760optt
  Br  1.36509813615310     -0.09364657230904      1.36408275269257
  C   3.10793892853169      0.11109165114222      0.71038234723969
  C   3.60367718533349      1.22024197459577      0.12150841143500
  C   2.74819147438932      2.35393664816585     -0.20742006060003
  N   3.04488828759318      3.48872728814708     -0.69728890161952
  C   4.33780030048604      3.94402984142466     -0.84830290593532
  N   4.86020818902644      4.56568250984425     -1.80317459519369
  S   5.44267156120911      3.61059009005492      0.57598370401245
  O   6.53788387872644      4.51481042505304      0.57238652889757
  O   4.64794522889921      3.37545442768448      1.75249630521524
  C   6.01918579184124      1.95350713028321     -0.01136574595017
  O   7.17157391428275      1.72877799972865     -0.19536277955859
  N   4.97417744304019      1.09618055966459     -0.26269935492129
  N   5.37540152466375     -0.14324966561020     -0.81334013443930
  C   4.84944197973033     -1.13719888619357     -0.23735481118830
  N   3.89135034447504     -1.01823098364640      0.76402884162747
  H   1.69417668054253      2.18150503195634     -0.01125074578180
  H   4.19655139341553      4.67844316738108     -2.57196671952334
  H   5.11711004035014     -2.13717389242097     -0.55374930881700
  H   3.49672771731043     -1.85447874494600      1.16440717240834
