24
Coordinates from ORCA-job 8773optt
  Br  4.20437554916249      0.22341793010635     -2.96859643504797
  C   5.93955753728872      0.57792374664339     -3.55811196286282
  C   6.22478242767195      1.55609292252265     -4.47755983606353
  C   6.06222192257271      2.83249264879076     -3.66359465821649
  N   6.98073940595848      2.55806033133755     -2.51097935384672
  C   7.57374802209159      1.37230116929681     -2.25677728963425
  O   6.92480190992033      0.20439615647532     -2.73470171939013
  N   8.67008686509395      1.13352726300759     -1.63402968011713
  C   9.62257517704288      2.13363041513782     -1.58881360411342
  N   9.39352968562607      3.37451936358424     -1.75644992242119
  C   10.30306931322042      4.24421063209610     -2.39651266078344
  O   11.08860895432871      4.96839644240050     -1.85435557022439
  C   10.01298526333352      4.27093077220696     -3.87275772790519
  C   9.45627938469611      3.20816338011138     -4.45626141501323
  N   8.87362136335233      3.19848879465282     -5.72920938277348
  C   7.91953921082268      2.38429338723288     -5.88250024050175
  O   7.54429605779473      1.46256154856388     -4.93924913843554
  H   6.43199969550325      3.71687341187397     -4.18413243161442
  H   5.04738164211014      3.00252665769284     -3.31699080308550
  H   7.59332880865012      3.31583225179370     -2.18488298939456
  H   10.63885186318933      1.73746186297985     -1.53502791053665
  H   10.19572406016642      5.20046641922247     -4.39689537269940
  H   9.36310563337330      2.28547197121227     -3.90300229297597
  H   7.33879024702945      2.35696052105781     -6.80060760234271
