21
Coordinates from ORCA-job 8776optt
  Br  7.32535284942789      0.66050483586151      1.65368743797520
  C   6.11091694597172     -0.69539260259273      2.02292689694065
  C   6.38819206272110     -1.91889944309599      2.54199976167743
  C   5.28257929885249     -2.86564661958080      2.39513963427542
  N   4.07247196418158     -2.46356150662363      2.31982710040264
  C   4.04279625044964     -1.10222093840679      2.61465609611002
  O   4.84155059156367     -0.35150957123132      1.73373312984288
  N   3.63673073646845     -0.56233131817335      3.65440637272860
  C   3.53982197545017     -1.36454831220276      4.81634673262854
  O   2.56831420082929     -1.64207479628050      5.43694305847172
  C   5.00759100535778     -1.67720931901187      5.25134191974981
  O   5.75161520986517     -0.76728011910461      5.51542173397991
  N   5.31663818333893     -3.00643239611564      5.39153985654484
  C   6.39806027768832     -3.60700499020049      5.09946036009067
  N   7.41494072536254     -3.33488851763716      4.21992657458052
  C   7.62494902245535     -2.36473409350941      3.20798039840533
  N   8.82877437287296     -2.09006240727243      2.94836914067756
  H   5.50026828483115     -3.92671951497524      2.30060520973333
  H   6.57818316741459     -4.55834802574041      5.59932927219833
  H   8.25170025805460     -3.88161347781424      4.37315503332388
  H   8.91555261684252     -1.47502686629212      2.14520427966266
