21
Coordinates from ORCA-job 8777optt
  Br  1.68622317102159     -1.97741064586020     -0.46678279977183
  C   3.52438041408889     -2.48136948536464      0.00476812569601
  C   4.14966077914962     -1.59611649463741      1.02673228904395
  C   4.74292640531365     -0.36438648892768      0.52806700246041
  N   5.27657175002833     -0.43482933922690     -0.62717206866672
  C   5.32739871219318     -1.68593100946472     -1.26125580997436
  O   4.25478150319160     -2.53755522943341     -1.18337309484128
  N   6.34163787397688     -1.99211520160600     -1.93950098203446
  C   6.56366764609428     -3.26217993422593     -2.44219513343496
  O   6.80737760075016     -3.51363361571561     -3.58041758274605
  C   6.56690752231652     -4.44118138078351     -1.42275696798320
  O   6.90562313050034     -5.53981948650013     -1.69829579977824
  O   6.04343414607066     -4.07362961752054     -0.21375814808800
  C   5.38124267952466     -5.04475719762870      0.50231609743616
  N   4.29754614440623     -4.84852022485562      1.08782495097600
  C   3.54768347614207     -3.61922645114319      1.13020231842879
  C   4.16810770041592     -2.51825527498861      1.98664972492109
  H   4.73023125619566      0.58833891086327      1.04845393299937
  H   5.87655617516479     -6.00947250505644      0.52284429104149
  H   2.52629956080696     -3.87871678086912      1.40420269379176
  H   4.53874235264797     -2.54623254705485      3.00144696052406
