24
Coordinates from ORCA-job 8778optt
  Br  2.05139073803021      1.27404036199241     -2.73112869188574
  C   1.71039553903366     -0.43412077473546     -1.96999969064859
  C   2.59059535787272     -0.93588952353028     -1.07459932944776
  C   4.01114055953400     -0.91514977979563     -1.56896460061139
  N   3.84754824864685     -1.62893064169568     -2.86345383527779
  C   2.69630901986014     -1.96678274980071     -3.55760026176976
  O   2.72548610386125     -2.63160971880676     -4.56596679773839
  C   1.37790246386313     -1.49008068013523     -2.94745652337573
  C   0.22096496047056     -2.14109316374483     -3.06780514569283
  C   -0.77364143237388     -1.75183341796295     -2.06966297876771
  C   -1.35946880987787     -2.58664496048986     -1.21083895800560
  S   -1.56495784346073     -1.96424000077466      0.43254186879070
  C   0.16408317412308     -1.53577553437879      0.66146733339607
  N   0.63110043995274     -0.60426604251835      1.35834196945130
  C   1.15436592431025     -2.55078328445681      0.07569602970078
  O   0.97422077097646     -3.71825861283209      0.19024795596834
  O   2.33882725279048     -2.12242951542827     -0.44673048713021
  H   4.67845194332709     -1.48160607195631     -0.92250782100150
  H   4.39255042793017      0.09108144559929     -1.71980541364478
  H   4.67273374631657     -2.04474953692529     -3.26853452617904
  H   0.13030840522734     -3.01159956885626     -3.70595613055016
  H   -0.74612174223969     -0.69946329069785     -1.80161327360226
  H   -1.42046340458578     -3.65787854474874     -1.35228950428242
  H   -0.09072184358877     -0.02693639332087      1.78961881230447
