24
Coordinates from ORCA-job 8779optt
  Br  4.73164052243282      4.73340847139940     -0.12253639155556
  C   5.49843465260179      3.28814844984363      0.82593811363063
  C   4.77247452653520      2.30763397888912      1.37942490988567
  C   5.49615418086824      1.04241546525575      1.74951353210292
  N   6.74933513093105      0.89410757002283      1.03318542234349
  C   7.59062730340177      1.91094624888183      0.69270140026013
  O   8.71979017283811      1.74190677912590      0.29352084784176
  C   6.96767957024865      3.26605256496113      0.89536616343630
  C   7.77418916684348      4.26665971554133      1.28848806013242
  S   7.26980401411293      5.79467407203626      2.02834660758738
  C   6.01781096386918      5.02197309266875      3.01623358152214
  N   4.79611981219773      5.35213449349763      3.10701173008721
  C   4.05900744744403      4.16830887371486      3.32561035293444
  C   3.12857288614384      3.80837351526627      2.43569237608598
  C   3.34218597519792      2.42929206998608      1.86972570236908
  N   2.59178187117880      1.41299797706664      1.85783539069288
  H   4.83428127867595      0.21420085779212      1.48928307226647
  H   5.64643232352358      0.99879555352944      2.83731117021402
  H   7.16123408175131     -0.02565340299313      0.98294446675208
  H   8.84411105881263      4.10488466557670      1.23730785867464
  H   6.37950955112581      4.05372518519727      3.37689991848299
  H   4.55730314499719      3.39216903585172      3.90990903213071
  H   2.66059889584191      4.55653642741402      1.81071071041687
  H   1.69492146842599      1.62130833947442      2.29657597170530
