20
Coordinates from ORCA-job 8780optt
  Br  1.16542888358958      0.56838600627426      0.88426258371331
  C   2.91544185620619      0.26093572998087      0.31202087022300
  C   3.41965510705583     -0.97551419870320      0.11204127006287
  C   4.86901916393537     -1.13311508849082     -0.05222718520746
  N   5.63194108923153     -0.03064118965087     -0.36278759243799
  C   5.19623604067316      1.26692034086957     -0.28355002280793
  O   5.91678380380200      2.20071803681292     -0.51257120215510
  C   3.75163221780661      1.46028354340112      0.14634223285747
  N   3.31374013241972      2.62704389310516      0.33986014056189
  N   5.53362980664478     -2.21953381724108      0.10175036435908
  O   4.81902043225136     -3.36518339856866      0.41157208334600
  C   3.50206794028396     -3.36539592746784      0.32500124793064
  C   2.74358339117113     -2.26423713297517      0.12670196192683
  C   1.35135281557567     -2.47953693130488     -0.30951457980726
  O   0.72674679056068     -1.74323797479363     -1.01824601719918
  C   0.75049701707821     -3.76506264186486      0.13332767801725
  N   0.31560382840809     -4.76628035905924      0.48123566195446
  H   6.61976180386211     -0.17957767093787     -0.53080846637739
  H   4.06067898736825      3.30088154138712      0.14698335816527
  H   3.10017889207573     -4.36885276077286      0.40160561287426
