27
Coordinates from ORCA-job 8781optt
  Br  1.20306488497533     -0.24800769327054     -0.45059399116811
  C   3.06649361748728     -0.04447035151735     -0.25608954310624
  C   3.65199338704828      1.19562115032484     -0.19893825097023
  C   5.03835430085390      1.24778767245440     -0.05919343051135
  N   5.45275043305992      2.58203409004539     -0.03877164869919
  C   4.39986970242949      3.43930175836357     -0.24290186113328
  O   4.46801193154876      4.62996062455399     -0.40394842267206
  C   3.10272404283494      2.59990100537515     -0.22520415149326
  C   2.30598893113697      2.94759922349437      1.06183622589458
  C   1.33792187692839      4.03318900450344      0.57454184635537
  C   0.97908739639901      3.49251227329079     -0.81832730776621
  N   2.22766355265956      2.93631169296017     -1.34533888339961
  C   0.19264839222848      4.23213057088762      1.45053543017815
  C   -0.75975863656234      4.37862105531711      2.16207473462490
  C   5.78528605839901      0.09002187500016      0.02265210027339
  N   5.19588685806166     -1.10455101386132     -0.03522160576662
  C   3.88237313758084     -1.17729062253087     -0.17218270391656
  H   6.40974529956933      2.89658126929812     -0.04085398161631
  H   2.95063830768877      3.27285846247470      1.87712145688602
  H   1.74125075620012      2.07383538235572      1.38992321106608
  H   1.88592856610913      4.97174248325220      0.45908585522176
  H   0.58796700752985      4.25778264495419     -1.48573066100888
  H   0.22961132488614      2.70441970561750     -0.71748705433104
  H   2.68845544338653      3.61672190192941     -1.93709875089791
  H   -1.60431184047881      4.51139363400692      2.79486723643970
  H   6.86358415809788      0.10820263559931      0.13156379581514
  H   3.44077110994154     -2.16521043487903     -0.22331964429822
