18
Coordinates from ORCA-job 8786optt
  Br  1.14705004821401      0.26050403808073      0.19835765587350
  C   3.03476601368933      0.11257120636782      0.13991094601874
  C   3.60309126342445     -1.18166477416905      0.17248119305348
  C   2.80874184400271     -2.46505178426524      0.26495419290416
  N   3.59773554777760     -3.65462576487041     -0.04254813784715
  C   4.84485392051636     -3.57938470441135     -0.06941985215551
  O   5.62179579604324     -2.46596152709876      0.10321767135718
  C   4.97338597851855     -1.27336350858647      0.11651049645332
  C   5.72975707625990     -0.10266174009812      0.04718068822132
  S   7.39144302604082      0.22915328331290     -0.03111096110537
  N   7.08632421617726      1.91200588013102     -0.07352608871140
  N   5.87287245506010      2.21061425335641     -0.03573810324312
  C   5.03426202728052      1.10897844519544      0.03382410960910
  N   3.70641437598517      1.22330598244255      0.07429733624528
  C   2.23716275294009     -2.62596790813021      1.61689895823539
  N   1.81410993487381     -2.74352841084004      2.67412317481703
  H   1.96647058186978     -2.43120788631711     -0.42946416559764
  H   5.46876314132625     -4.44471508010009     -0.25794911412831
