22
Coordinates from ORCA-job 8787optt
  Br  0.97851625194969      0.16674971959428      0.33328452617320
  C   2.84967728446335      0.07996798203750      0.26423260495797
  C   3.46238328125404     -1.10730835239102      0.20175161896838
  C   2.88452744388057     -2.50730426761261      0.22588330500950
  N   4.09567279858263     -3.30573504730323      0.36331005337772
  C   5.27779549128205     -2.63172494713524      0.21734902730137
  O   6.37997526080452     -3.11000180227751      0.19728316012884
  C   4.88862854423916     -1.18441050252168      0.10232427619971
  C   5.63393673584192     -0.09736563838868     -0.13205950053639
  Br  7.49134323181580     -0.14608758691332     -0.34798914908754
  C   4.96254214702011      1.20427373330858     -0.30637248756674
  N   5.44514263073512      2.26775636564567     -0.78614600878195
  N   3.61242892615860      1.24135626118822      0.18190217330139
  C   3.21161979886138      2.48058641107799      0.75558963336311
  O   2.19593637595346      2.64833037011788      1.35387786124831
  C   2.13679528457322     -2.84972524919609     -0.99115894345229
  C   1.54355830139564     -3.15895175214347     -1.98290731008075
  H   2.22951179937445     -2.63660177215228      1.09183355891155
  H   4.07755313518869     -4.31216373910806      0.31682560206481
  H   6.43412234452222      2.16073638769011     -0.99658717618813
  H   3.97940213646482      3.24072409714099      0.59028965685219
  H   1.01293079563848     -3.42810067065802     -2.86551648216424
