23
Coordinates from ORCA-job 8793optt
  Br  1.01364561269098     -0.06669958490298      0.08208062719842
  C   2.87635957511300     -0.19288389239483     -0.02163536911973
  C   3.55296279008042     -1.33964014320481     -0.01825799248351
  C   3.12336949855611     -2.77772226758696      0.05024000991294
  N   4.40991214482469     -3.45640837835597      0.01227943589419
  C   5.51649647436906     -2.65776246168673     -0.07419348455611
  O   6.66585666604399     -3.01371153955732     -0.12600278442318
  C   4.98196658709209     -1.25747796772585     -0.09138816771674
  C   5.63635016326655     -0.09200342097252     -0.15079753684228
  C   4.86441423584272      1.13580537871026     -0.13791033238623
  O   3.48125834364885      0.99717392242267     -0.09743707463074
  N   5.39942871800439      2.28089366478521     -0.19010364958520
  C   4.68705826086833      3.46911453253346     -0.11732094817447
  C   5.11247863480108      4.60482483899730     -0.74972526329381
  S   4.05251980910142      5.89255594659045     -0.41022634064912
  C   3.12245833482095      4.83898924802600      0.57636239935705
  N   3.55022023822022      3.62215983939244      0.64244414788131
  H   2.49522513764763     -3.05485620715370     -0.80000794194232
  H   2.57549532095771     -2.99822761529666      0.96933677369997
  H   4.50711971829890     -4.45788096580753      0.03727381206463
  H   6.71262034686388     -0.01477984384056     -0.19918860211376
  H   5.98412799489485      4.71236796225021     -1.37185169345992
  H   2.24465539399212      5.19616895477842      1.09502997536859
