21
Coordinates from ORCA-job 8797optt
  Br  1.41536173825693      0.54831072276969     -0.09408876936910
  C   3.27587199826769      0.25116620826609     -0.07806825546881
  C   3.80459717372247     -1.03167294559397     -0.07069900014773
  C   3.23482538497628     -2.40047352908627     -0.06948726660679
  N   4.10146923700764     -3.33695937037495     -0.06035919559471
  C   5.40643911681776     -2.70095161423677     -0.05548593446394
  O   6.44238575391538     -3.27866867632666     -0.04991472916422
  C   5.17732247428332     -1.20013154589466     -0.06043482149554
  N   6.09711061425898     -0.24733257736647     -0.05610841767719
  C   5.58649137258026      0.97225784677856     -0.06209190018761
  C   4.18990361167110      1.28569125927161     -0.07296588005062
  C   4.03008946491581      2.75084332238917     -0.07714783383896
  C   5.26540252205050      3.29093001202218     -0.06930636939663
  C   6.03106286971960      4.54773408436792     -0.06645163891926
  N   7.29569195610322      4.31226348125155     -0.05675054193490
  C   7.46765214358280      2.88616089162346     -0.05233581238181
  C   6.28026561073861      2.25631653275171     -0.05962575006744
  H   2.16882998638635     -2.60540056331109     -0.07502760405788
  H   3.07400686084244      3.25514017896856     -0.08509271440379
  H   5.63752985665074      5.55521402725786     -0.07160999276417
  H   8.46769025325205      2.48156225447249     -0.04394757200890
