21
Coordinates from ORCA-job 8803optt
  Br  1.01782956323073     -0.32262589955575     -0.14069891228446
  C   2.87104661851532     -0.13801280398635     -0.06978335617001
  C   3.49767231852913      1.04294152208461      0.05203953246077
  C   2.95685858420907      2.44727694518397      0.17847311117443
  N   4.18057289100976      3.22862178855903      0.22304943981891
  C   5.35815244545123      2.51819108441452      0.21928761615037
  O   6.46851039983276      2.96497380264506      0.28756126710208
  C   4.91869751677297      1.09144141117233      0.09265533745103
  N   5.68814312718543      0.06165751127729      0.02261798620878
  N   5.05474395137493     -1.09713186456222     -0.08990534174009
  C   3.68349224149282     -1.35732188192620     -0.14861966515634
  O   3.27451911302157     -2.48824977103809     -0.25426527369118
  C   2.13751023271837      2.61910678196929      1.42305221993706
  N   0.98521546703731      3.21206204470907      1.41708989585376
  O   0.59537080435683      3.17459677104931      2.73556007387854
  C   1.56581160741297      2.55739805962690      3.39912639715274
  N   2.55101116807836      2.18765339296956      2.65892197897153
  H   2.33083707648205      2.70710577978472     -0.67917293436954
  H   4.18224911797791      4.22885916651820      0.34104109944894
  H   5.65072696435778     -1.91310459442358     -0.14468327585902
  H   1.43802879095268      2.43056075352832      4.46265280366168
