20
Coordinates from ORCA-job 8805optt
  Br  1.31527789726520      0.40278901738514      0.94434788589687
  C   3.08842614110902      0.11476479239381      0.45583316262515
  C   3.61637215413991     -1.09165644295886      0.23526024635373
  C   5.00862243976956     -1.09067982460824     -0.13903285224144
  N   5.40230802944641     -2.39026415184123     -0.33706336759871
  C   4.41699720468557     -3.31058966578234     -0.04373476094736
  O   4.50605329359928     -4.49513796825756     -0.02665628894267
  C   3.09902918233677     -2.49386334433505      0.25169892753624
  O   2.46968494751745     -2.93025169138862      1.44794468904823
  C   3.24987526756010     -2.95978774950726      2.54425924377126
  O   4.40067318839744     -2.65427350218664      2.55936792344775
  C   2.14209706517485     -2.74323935397043     -0.83501273839082
  N   1.44316014005974     -2.91428940493150     -1.72469729278614
  N   5.75339484177946     -0.06280469107119     -0.28031216107730
  C   5.17131256792252      1.17335637843308     -0.05014047788619
  N   5.69928379515720      2.30108714084254     -0.14969150603500
  O   3.80746712104012      1.21537754231112      0.34971936126903
  H   6.35468402203309     -2.66115354449064     -0.53583618741073
  H   2.66117084636736     -3.29952392131320      3.40128571288686
  H   6.66910985463892      2.19514038527709     -0.43353951951877
