22
Coordinates from ORCA-job 8816optt
  Br  1.09866945884383      0.13460975940042      0.10440292642808
  C   2.96447915591416      0.08041464972188      0.05251785944157
  C   3.63812099687320     -1.07867611336913     -0.02455373686713
  C   3.08213494230507     -2.45967349914784     -0.19903509146659
  N   4.02504337601346     -3.48398328526661      0.22336964355546
  C   5.40021275892706     -3.44115801688369      0.03733096215282
  O   6.08631902978573     -4.43269684034247      0.09985856182841
  C   5.90670202735847     -2.08406820483588     -0.14272160663737
  C   7.13284199689084     -1.48178021285120     -0.21626754796489
  N   7.02035372515282     -0.11411755003701     -0.20675797824370
  C   5.73555179456908      0.11329982213289     -0.12258203759416
  N   5.05098320314678      1.28945887503156     -0.06725719102817
  C   3.66641591195883      1.38745739817216      0.04089498463683
  O   3.11967005233441      2.45819681801861      0.09960995413578
  N   5.00623821889807     -1.02844402777288     -0.08478155150193
  C   2.72525251355559     -2.68392327915496     -1.68564520166884
  O   2.77658736210979     -1.84157552677771     -2.52592482928683
  H   2.16153648337917     -2.55926486457747      0.38011519464027
  H   3.66635892206970     -4.41610091452694      0.37377560513155
  H   8.09210731426950     -1.96906473957203     -0.26393529426339
  H   5.56708012306512      2.15797054577581     -0.10446428841371
  H   2.45234063257925     -3.73188079313750     -1.91494933701404
