22
Coordinates from ORCA-job 8820optt
  Br  1.12659084071059      0.02177382801968      0.18560831109939
  C   3.00873242593021      0.04100933948714      0.13457572427097
  C   3.68067322484423     -1.18235256494759      0.27047346008814
  C   3.11701953975200     -2.57506889058078      0.27453646627133
  N   4.06746135878830     -3.49539929838476     -0.35559728675195
  C   5.43017727279083     -3.40322709204528     -0.46166740299082
  O   6.10127354133868     -4.17334180389042     -1.09450985178809
  C   5.99654107253332     -2.22956377504901      0.33928833021716
  C   7.28617227052831     -1.53181077122718     -0.11226860152884
  O   8.36118626475469     -1.97168597815359     -0.29626374923781
  O   7.02842825300497     -0.15655708200706     -0.20618167942959
  C   5.69614443572623      0.06188142830008     -0.00958173112996
  N   5.10742304651638      1.20530970587124     -0.18330361721095
  C   3.76061833280084      1.20205729342739     -0.06141546387470
  C   3.19287631804092      2.58162831995016     -0.21974639379563
  O   2.03965851970106      2.88149268922908     -0.10872612919348
  C   5.03849273083688     -1.11280867238123      0.30137007928563
  H   2.18839073780678     -2.60113041338977     -0.29395019032441
  H   2.87879656245551     -2.88168975410845      1.29874184065871
  H   3.68127985217612     -4.29008095916785     -0.84275004019702
  H   6.17935584879363     -2.60376886489357      1.35340041933607
  H   3.98070755016944      3.32033331594177     -0.44703249377414
