23
Coordinates from ORCA-job 8822optt
  Br  0.98395987052652     -0.22919741057175      0.04405759368869
  C   2.85253243224975     -0.15451110337691     -0.09911403810043
  C   3.63863735460176     -1.22716728925957      0.06602461490449
  C   3.36199927170799     -2.61562251700988      0.33578477735641
  N   4.46073637404548     -3.30931617117618      0.37891648615546
  C   5.51636372314910     -2.44801879532862      0.15106720585884
  O   6.74663754897905     -2.99283644802348      0.10218894297910
  C   7.82631166500256     -2.23852557238296      0.42806231142107
  N   8.91467025502861     -2.32225995662680     -0.20312089536201
  C   9.85324266195369     -1.48073786001387      0.54593709814268
  C   8.96864533910997     -0.59689923422845      1.44688038991915
  N   7.78731037695871     -1.45284872763963      1.57386067436310
  C   5.10106280947542     -1.16250470844164     -0.05344961675062
  N   5.82058545962704     -0.03088874877883     -0.32740811386993
  C   5.22719683875467      1.07444010250490     -0.51523246709365
  S   3.48942439973739      1.40703376599582     -0.47028783481890
  H   2.38761284508277     -3.05878461609207      0.48317577379742
  H   10.48071892025736     -0.90249916202616     -0.12914304832221
  H   10.50208813742917     -2.12416678687385      1.14680697350875
  H   8.71253047184440      0.34127611306641      0.94422322741374
  H   9.41409470891789     -0.38244769480704      2.41599021238838
  H   6.90999316743911     -1.00105743370112      1.78330936379916
  H   5.79464536812147      1.97254025479170     -0.73752963137871
