20
Coordinates from ORCA-job 8823optt
  Br  4.44986480286581     -0.37911579027342      1.75448602172186
  C   3.41280915454550      0.41176837800017      0.41446527633537
  C   2.36070035248260      1.22540757421728      0.68179867558844
  C   1.84155366566034      1.40954295702832      2.04936496021808
  N   1.18924709902668      2.38334181389410      2.52156763823358
  C   0.90793105619572      3.58251398811213      1.85244297932368
  O   1.25387116146330      4.64092215455658      2.28305768224790
  C   0.12985403508952      3.44684704824889      0.57840667619842
  N   -0.83206610285624      4.22108305496906      0.22385662107590
  C   -1.16694421917924      3.87013395318501     -1.10969880571885
  O   -2.08128144171182      4.27518293710147     -1.76328029307712
  N   -0.20623868272663      2.93478020168456     -1.55914179577626
  C   0.56991058044985      2.55743071991146     -0.47002320734496
  C   1.66418886298393      1.75532281377894     -0.47432130078710
  N   2.17828831376207      1.29556258593812     -1.67943687557859
  N   3.22303619969332      0.50907598255272     -1.85244057914303
  N   3.85129108554350      0.06881908157828     -0.85463955138079
  H   2.02112385647975      0.56656527517765      2.71424312860240
  H   -0.45783781852226      2.33039311380434     -2.32595834501518
  H   1.80669803875429      1.64942215653432     -2.54974890572375
