23
Coordinates from ORCA-job 8824optt
  Br  1.06877442088268      0.31802271115902      0.11095574004649
  C   2.92672544118031      0.01421040973179      0.11659683420000
  C   3.49659487514398     -1.19307902611472      0.26895386373515
  C   2.74548123382592     -2.47315433867192      0.50649980366012
  N   2.86131711456845     -3.41683585514474     -0.58882968756202
  C   3.96387892385010     -4.16246183785203     -0.88062651857316
  O   3.96531380024802     -5.02780161515600     -1.72243286749833
  C   5.19082749785197     -3.79944821772137     -0.10364545492088
  N   6.10176960037076     -4.72200548621490      0.14656319964173
  N   7.08610714500026     -4.07192039104647      0.75775672323543
  C   6.85887859412560     -2.75499211654292      0.89668781701632
  C   5.61565903067905     -2.51908763646538      0.34825283839519
  C   4.94399451737629     -1.22772490512312      0.21579279166027
  C   5.65043489539082     -0.08481591866135      0.04861542270811
  C   5.00335947285346      1.19789277642595     -0.07084746664130
  O   5.50816008549757      2.27005723075768     -0.19609339380101
  O   3.59811119708904      1.14691749979770     -0.04841310012638
  H   1.69068764569959     -2.26870886241005      0.66183759033205
  H   3.12367343867774     -2.93352609072350      1.42263477216195
  H   2.05603113434584     -3.60452822355015     -1.16562959883854
  H   7.89036855284516     -4.59032042042728      1.07155347364872
  H   7.56136560599666     -2.09482262763623      1.37761041322770
  H   6.72748577650066     -0.07586705841001     -0.03079319570762
