20
Coordinates from ORCA-job 8826optt
  Br  4.81102336291269      1.88118687213165     -1.95803819509896
  C   3.36364261873590      1.10929231758521     -1.06855945218024
  C   2.78018862315949      1.62523392298139      0.01124424415640
  C   2.83903627736750      3.00406135140137      0.64738690913007
  N   1.48182169436139      3.49052033163381      0.49794418197832
  C   0.75381226973877      4.09072112198868      1.30464952480861
  O   -0.63706626846210      4.12006304903317      1.09868306776794
  C   -0.95644771065500      3.03556869742684      0.34634475786434
  N   -1.20413263671231      3.08512909151824     -0.92975301223713
  O   -0.85198137338140      1.81843398217466     -1.35322258826309
  C   -0.39823638231513      1.17080008176303     -0.26985062374134
  N   -0.58303477408715      1.82133369245925      0.82288866033310
  C   0.89402027288758      0.42951845647014     -0.44981149290706
  O   1.72788650123125      0.89648652420148      0.52596453629578
  N   1.31010288713088     -0.12876160304497     -1.49336714787366
  C   2.73636862074085     -0.12970796797446     -1.64984162843208
  O   3.31744567244839     -0.96599143118849     -2.26579451074651
  H   3.53509351173780      3.61854460164305      0.07637082812361
  H   3.16987335717912      2.95241824314500      1.68808358885982
  H   1.00058347598148      4.60514866465096      2.23167835216208
