23
Coordinates from ORCA-job 8836optt
  Br  1.29919252391546      0.26506779459294      0.30380020172307
  C   3.14088429139859      0.01135372491470      0.17908058728074
  C   3.75324586070457     -1.15997485238164     -0.04425869555310
  C   3.38330040671082     -2.52439058399163     -0.25647366952469
  N   4.45598612873295     -3.25819414246523     -0.40686307815857
  C   5.56646249509749     -2.44231257597136     -0.30332872211568
  O   6.81160538276863     -2.92707846018889     -0.41028387708824
  C   6.92165023532651     -4.33196525862274     -0.54761851153340
  C   8.37173614631893     -4.64363227206650     -0.50555947922941
  C   9.49945311617977     -3.92214424028839     -0.35300458735925
  N   10.58858000928988     -4.78556222456090     -0.38971509070808
  C   10.07145722192716     -5.94561151648177     -0.55675953735879
  O   8.72420898576269     -5.94972839894816     -0.63808196406118
  C   5.21309190605687     -1.14395995547187     -0.08543045605975
  N   5.91554069917315      0.02313437702180      0.08303807068632
  C   5.23468413244409      1.06531248642122      0.27721752817346
  O   3.84471603448693      1.13060949325020      0.33859566711728
  H   2.38633948830337     -2.93657362675527     -0.29921637342898
  H   6.47647090926589     -4.66314948020027     -1.48996372970631
  H   6.39043631234420     -4.84029282240511      0.26137447471850
  H   9.60244781682872     -2.85985789286452     -0.22212262511729
  H   10.56642324275549     -6.89861289835967     -0.64085483173393
  H   5.65208665420773      2.05056332582311      0.42242869903729
