26
Coordinates from ORCA-job 88optt
  C   -2.32523529859500     -2.53683737957181      0.29560391716001
  C   -1.82866885375824     -1.25843013984981      0.22358060079115
  C   -0.45372948147780     -1.02059683378142      0.40872039331005
  C   0.40492921532506     -2.06253725616139      0.66208091021576
  C   -0.09126571079862     -3.38185186133634      0.73198868285750
  C   -1.46455132785618     -3.62397762582359      0.55058298639194
  H   -2.51329080580524     -0.44437920329492      0.02408997198197
  H   -0.05020701616330     -0.01792886439420      0.35675173725441
  C   -1.96083657833009     -4.94323243278057      0.62111495107310
  C   0.76947708336714     -4.46899917654124      0.98676682820033
  C   0.27293068909105     -5.74741213378114      1.05864293998000
  C   -1.10209549275012     -5.98520081317603      0.87411605598798
  H   -1.50567509057869     -6.98782753783203      0.92642996553555
  H   0.95763037667190     -6.56146947193554      1.25782051512225
  C   -3.42815077256542     -5.18394922297413      0.41198076781530
  C   -3.76284000945324     -2.83726119585979      0.11686627550717
  C   2.20710601481669     -4.16855244110349      1.16530594729430
  C   1.87210485947239     -1.82170372666730      0.87215678503402
  N   -4.23070393216329     -4.09192996364940      0.17607196808157
  O   -4.58806812233241     -1.91262613699155     -0.09679222138026
  O   -3.87981049462230     -6.30899540726524      0.45315164825880
  N   2.67483005754265     -2.91380132751310      1.10707537276088
  O   3.03246631538446     -5.09328932821118      1.37803644252704
  O   2.32343388442684     -0.69646121811732      0.83297655866215
  Li  -5.89535884570975     -3.24900131226643     -0.16615220676098
  Li  4.33957933686150     -3.75674798912098      1.44903220633800
