22
Coordinates from ORCA-job 8928optt
  Br  1.21872344236001      0.08227849460633      0.01534064026667
  C   3.07954935577707     -0.10548859568177      0.01735858096028
  C   3.71727043050212     -1.28870775966328      0.01825775287053
  C   5.17115248515398     -1.25399818462451      0.01910409642025
  N   5.81634102598010     -0.04762822129236      0.01929557990467
  C   5.17372764173412      1.16851018188310      0.01869159252744
  O   5.73406100212916      2.23246187755272      0.01909250515524
  N   3.78196451637820      1.06926415668706      0.01772479786072
  C   5.67635180277184     -2.51968757132066      0.01946170241399
  C   7.05536550069081     -2.83733905656078      0.01994870577537
  N   8.18911944182813     -3.02654939796486      0.02117831847881
  C   4.53996959903911     -3.44005007462188      0.01893072931562
  C   3.33673720744528     -2.69110947596473      0.01826265289005
  C   2.13507129359221     -3.37481187702774      0.01794075116699
  C   2.19460551789933     -4.76393047577014      0.01818239260597
  C   3.43217003136283     -5.39853405701768      0.01867419895604
  N   4.60253265251434     -4.75938458411298      0.01907884236838
  H   6.82790827872419     -0.00920745883597      0.01995811725354
  H   3.29727251668693      1.95470251799504      0.01715092256921
  H   1.18450714952874     -2.85910894166251      0.01756103821080
  H   1.28970271056330     -5.35532350497514      0.01798922683130
  H   3.48489639733815     -6.48135799162727      0.01881685519816
