20
Coordinates from ORCA-job 8935optt
  Br  1.72480573708019      0.99823857168117     -0.76977064399718
  C   3.46515750372274      0.49750033289536     -0.29873272598902
  C   4.42283676326109      1.36268298051212      0.14062650728358
  C   5.77679675926635      0.82733729626030      0.32976285912061
  N   5.88337074488141     -0.55016106527945      0.20078075827945
  C   4.93177613232553     -1.43354516960672     -0.22433614565354
  O   5.09864653405602     -2.61099580109246     -0.37365961237283
  N   3.70773183170817     -0.81829087798825     -0.49413896295129
  N   6.86894753192092      1.41848432445006      0.63412731797793
  C   7.10345742170413      2.78312637593321      0.56686664959830
  O   7.98224377621026      3.32765954402546      1.16764455104110
  C   6.18608479616266      3.55678733022736     -0.36784651523447
  N   6.56935071104316      3.98525170687129     -1.48375557121457
  N   4.92202327479511      3.76521126166314      0.21067520076179
  C   4.15144453411900      2.78552061719234      0.43918659847225
  C   2.92433499461019      3.10679291747260      1.15423363901079
  N   1.98713086453768      3.35545639712168      1.76438610139265
  H   6.80775961881671     -0.92991535302645      0.36551689074488
  H   2.98417315181774     -1.42570826202477     -0.85235862504298
  H   5.82692731796089      4.50656687271201     -1.95320827122746
