30
Coordinates from ORCA-job 8999optt
  Br  3.26826932358012     -0.68999401750415     -3.28191807690973
  C   3.18292242050510     -0.05394433732876     -1.50880661653908
  C   3.07293913839202      1.26654936684619     -1.24685322810309
  C   2.81822404865471      2.36844028645254     -2.24810343448197
  N   1.40054062622946      2.73483879721456     -2.14922237730344
  C   1.04246841878226      3.46784101329355     -1.04391195641237
  O   1.70657235321351      4.35180848990951     -0.56258732547454
  O   -0.13625741557590      3.04658058625054     -0.54883961992234
  C   -0.45273183046364      3.43419107993369      0.79286212206357
  C   0.11310890253596      2.42372911592309      1.78638718301353
  N   1.51963476087260      2.65566121964184      2.09904972629810
  C   2.31900491450561      1.47214302656578      2.37505530638459
  C   2.71146813907666      0.80832206623536      1.07428949540842
  N   2.95473187168384      1.68211195784266      0.05740329932391
  C   2.80245597479076     -0.51846891304097      0.86459566865839
  C   3.17019095945210     -1.06724639470681     -0.43930837145169
  N   3.39507136876555     -2.29808921162142     -0.70586661405573
  H   3.04147838977293      2.04386788748079     -3.25791726072792
  H   3.41002227193397      3.25316802266548     -2.01806208982544
  H   0.77664831804103      1.95689444587595     -2.32046373323311
  H   -1.54001152637211      3.43919477421555      0.83784466008905
  H   -0.06980594532549      4.43662379282765      0.98247698407020
  H   -0.51320606253254      2.42687389469398      2.68715478428123
  H   0.02113065236602      1.43120532771447      1.33724282920687
  H   1.62944371309631      3.35665226339370      2.81668239775423
  H   1.81881700689637      0.72928208500431      3.00786452314106
  H   3.22333061590549      1.79239103966072      2.89740302405833
  H   2.79987066903611      2.66358155225650      0.26062694033877
  H   2.59022776287520     -1.20732481311351      1.67253775345312
  H   3.32044015930598     -2.86388440458282      0.13738400689708
