21
Coordinates from ORCA-job 9001optt
  Br  1.99413869714206     -1.08398883908045     -2.39004961844566
  C   2.95561031794457     -0.20196395054040     -1.04898845042086
  C   2.79208405046844      1.10294379599181     -0.77339476139866
  C   1.88476484451998      1.91060335388387     -1.61910292117568
  N   1.02011881525646      2.73024812859372     -1.20991818618965
  C   0.68843779401843      2.90274664719958      0.13306022496260
  O   -0.18323179803059      2.33050510793538      0.69766607593810
  O   1.35429856766509      3.94614223221284      0.71406662973074
  C   2.68866368664647      4.13337611179952      0.39476456265073
  N   3.15171495069057      5.23611782671438      0.03547469068673
  C   3.58611725397110      2.99542088814906      0.71988764894280
  C   3.59090150765488      1.72766512910558      0.28311535793044
  C   4.62782644366390      0.85265201680370      0.91402301358101
  O   5.42867756655920      1.23454766606713      1.72116997622268
  C   4.66554739994363     -0.61790587130934      0.52221214770083
  N   5.45098098659048     -1.45634860764623      1.00448959896743
  O   3.76933454787180     -1.05976761793635     -0.42286378566705
  H   1.99409560331093      1.79855473515983     -2.69626645048589
  H   2.40999853138819      5.92410765814972     -0.09662887214186
  H   4.35895484193444      3.24901097624425      1.43771938108963
  H   6.04896539078992     -0.99266738749762      1.69056373752158
