25
Coordinates from ORCA-job 9005optt
  Br  3.14776025359284     -1.28793510927667     -2.14622161933504
  C   3.21813509756094     -0.05846938759263     -0.71312465540330
  C   2.91072049165143      1.24279744259412     -0.81768860011346
  C   2.28746192481120      1.94547515021751     -1.99398884359406
  N   0.91022617662963      2.28153024091512     -1.66734616044271
  C   0.57912156905931      3.46303847084446     -1.10798223827735
  O   1.26370435411122      4.44419969238175     -1.01663612023416
  O   -0.71161220731380      3.40290256362351     -0.60954514261047
  C   -0.82428160085501      3.84718263743900      0.71253714297270
  O   -0.43980477751078      2.78780637304232      1.58190047516922
  C   0.86754819125199      2.53981001115136      1.58974124471633
  N   1.29877323896547      1.35516961289508      1.79929081259501
  C   2.62061617134993      1.19997579967620      1.48834572242030
  N   3.26418206526691      0.02568652222362      1.79171901363064
  C   3.61854965789555     -0.71001703118691      0.62208557357466
  O   4.09475722720666     -1.80189951745111      0.70362939437253
  C   3.30139779732820      1.89021559701719      0.48443504353132
  H   2.30404175491539      1.32324795266491     -2.88609159605611
  H   2.81305322468970      2.87883595434823     -2.18928271912089
  H   0.25885871602332      1.52517794151838     -1.51948278757280
  H   -1.87142871958387      4.03866173474100      0.91247085900243
  H   -0.19874945162266      4.72624199735576      0.87647450719270
  H   1.52992326025047      3.38665897340660      1.38814057444367
  H   3.01865092416233     -0.55352131356565      2.58753726140921
  H   4.37739466016359      1.79922769101681      0.61208285772961
