23
Coordinates from ORCA-job 9006optt
  Br  2.47020443752592     -0.54130233662303     -3.21835205999644
  C   3.06970731335358      0.01349873842681     -1.51582947154129
  C   3.26348614370386      1.31317365476769     -1.20631258755519
  C   2.65013911509986      2.46793115354945     -1.98790429109272
  N   1.36530878090259      2.74080844438945     -1.31701049855097
  C   1.42478667471631      3.35656479365469     -0.08894307113913
  O   2.16698038479505      4.25371075396189      0.20025358391421
  O   0.54651308233554      2.79244086562592      0.78937841986974
  C   0.85884500179801      2.93212519818617      2.16601702713155
  O   1.62172078273659      1.81973556089302      2.59665193635088
  C   2.97698060494427      1.88847127081355      2.37792242103966
  O   3.69887132561973      2.63826446976895      2.94413619594508
  C   3.33724514286645      1.01548109270044      1.20994397859539
  S   2.91681078711743     -0.64937889182766      1.17839885234771
  C   3.19222752215677     -1.09482596764292     -0.55136537183656
  O   3.29198391626030     -2.25666057405273     -0.81542502859077
  C   3.66659688590037      1.72623386350347      0.11555891843081
  H   2.46203310749461      2.22266296877701     -3.02753083721630
  H   3.25986630756095      3.36628896012299     -1.92837297921347
  H   0.73690459469301      1.94690104496999     -1.32188077500867
  H   -0.08075668901263      2.88320282344859      2.70323228362022
  H   1.39797570939256      3.86112384495739      2.34273083404200
  H   3.93956906803886      2.76354826762883      0.24970252045428
