19
Coordinates from ORCA-job 9007optt
  Br  2.28340065934402      1.65579349612510      2.17967309653469
  C   3.52080950415019      0.81409255101219      1.04483779817489
  C   4.24905216397617      1.49552687287912      0.12989555504487
  C   5.25637807481470      0.80305339456765     -0.63711354007088
  N   5.54619420815452     -0.44583867714022     -0.67998169727154
  C   4.87315663005886     -1.39970742063546      0.05234866691043
  O   5.03922504653653     -2.57545699860750     -0.03196663894542
  S   3.65552532171401     -0.87061597269339      1.30605524615048
  C   6.11427149225961      1.72084040958420     -1.49052228553792
  O   5.98762864896005      1.82224736125136     -2.67195650908596
  N   7.08244255310021      2.38598856674826     -0.74355008771744
  C   6.85628116599272      3.31806254980247      0.07761695034979
  S   5.30908088927925      4.09464262390649      0.48287050408791
  C   4.04789399036025      2.95223750551186     -0.11216561766846
  N   2.96225599668570      3.37367965509327     -0.58015501802441
  C   7.93183254722886      3.93634898020352      0.79993764280190
  C   8.79505855235671      4.48815720760484      1.41866156977968
  H   2.93766719337999      4.38867548043396     -0.68586149035385
  H   9.57684536164756      4.96727241435227      1.96037585484122
