24
Coordinates from ORCA-job 9010optt
  Br  1.11608064468762      0.51264435708104      1.03176971129299
  C   2.89205633418175      0.26943771998066      0.49723994447962
  C   3.44125677169848     -0.94762331241408      0.25410633549670
  C   4.85035024091823     -1.05174277073355     -0.03636554559994
  N   5.44684931669990     -2.31260100709343     -0.22781651702534
  C   5.14624301461690     -3.46077890244210      0.44535179292952
  O   5.88664289475979     -4.40228460136612      0.51870974411872
  S   3.52204261217232     -3.54864969530005      1.20002650411698
  C   2.68462411366015     -2.22592018313712      0.30573370273308
  N   1.55160651843946     -2.33560110359849     -0.21866001667464
  C   0.79783550157547     -3.57344124733181     -0.14791560254085
  C   -0.14123311852247     -3.69241448000860     -1.26185693371436
  C   -0.91190633565573     -3.82864304911744     -2.16601343355221
  C   5.58194186786418      0.07273918426359     -0.13273248485979
  N   4.99874222283177      1.29558001053436      0.03565442606659
  C   3.67224647424940      1.51506714376205      0.39297618643236
  N   3.15257487976993      2.65902965758460      0.60016177066246
  H   6.37376177770602     -2.33155539847923     -0.63154586764763
  H   0.23350235305471     -3.57136547055593      0.79038062858974
  H   1.45329743069513     -4.45097999215115     -0.12675490017950
  H   -1.59941999599818     -3.94019486091391     -2.96999816647775
  H   6.64086134167950      0.06880043359769     -0.34921984162705
  H   5.57591669205492      2.11556148126886     -0.06072383954803
  H   3.82112644686074      3.41693608657018      0.48449240252833
