23
Coordinates from ORCA-job 9018optt
  Br  3.16644354075350     -2.01209046461424     -1.33442510784772
  C   5.05896133280074     -2.08927269586115     -1.51568457736215
  C   5.79664500221418     -3.10133840558341     -2.34538420912680
  C   5.77797942100131     -1.62361395224824     -2.73124053664356
  N   6.91840134119303     -0.84083708394436     -2.40529305720221
  C   7.40267538391074     -1.25225664237716     -1.18039646962176
  S   6.00653148618053     -1.49484706816660     -0.07979869179082
  C   8.66969200201885     -1.64989997867047     -0.96824135966874
  C   9.52402190751172     -2.19847025308783     -2.06005351815370
  O   10.71976235976362     -2.26674862525804     -2.03627500258018
  N   8.71388322352770     -2.80801279205758     -3.08049905992999
  C   8.69454982903998     -4.06114159031942     -3.12479061595989
  O   7.76138817897343     -4.78065946646846     -3.78243581761831
  C   6.63815560557075     -4.18473978725578     -4.38700115849154
  O   6.64825714435583     -3.89403794310867     -5.52741765629310
  C   5.43036848788181     -4.01727060483706     -3.45085090135168
  N   4.34421012058168     -4.55032702704031     -3.78927549085802
  H   6.70217907922951     -3.41841445051890     -1.84758130486509
  H   5.21634972678559     -1.35033433621376     -3.61435663230502
  H   7.62021566785139     -0.81948005610134     -3.13467194173635
  H   9.04641975941389     -1.81536744325242      0.03201506609914
  H   9.37665489115833     -4.72615779782442     -2.59530769766249
  H   3.60425450828179     -4.33468153519035     -3.11903425903000
