25
Coordinates from ORCA-job 9019optt
  Br  2.02541113143576     -1.05315298535525     -2.62746860520189
  C   3.36948866134220     -1.59123342304659     -1.41286276252375
  C   3.12223948263907     -1.59629005673699      0.01812001617373
  C   3.89829340301604     -0.45202081611414      0.58355508552776
  N   5.17714478391331     -0.49884996075342      0.44352723942149
  C   5.76324130489721     -1.30942782973987     -0.45101389798918
  S   4.95185808667886     -1.70916013178517     -1.90186933468576
  C   6.84065373692986     -2.22660948942510     -0.00620885303214
  N   8.10802942498181     -1.73085861371769      0.23302216528159
  C   8.54739112724174     -0.46178356340317     -0.05643804020557
  O   9.65591530224275     -0.08033763414428      0.21102703558811
  C   6.49193187468784     -3.52049328110132      0.22242850224276
  N   5.15010253082542     -3.80049559379237      0.13076895377728
  C   4.54691895612531     -4.89917739055313      0.31604802183735
  C   3.07899830771577     -4.95272379518826      0.17334951339592
  C   2.22576247662677     -3.92861717812613      0.31171982233178
  C   2.61382110032158     -2.57331412084730      0.76112483479684
  H   3.44004211708477      0.36940673350850      1.12389097014187
  H   8.78121756401069     -2.32594383508732      0.69795885403422
  H   7.78632594675931      0.15526510593404     -0.55106225886584
  H   7.22663336791120     -4.26764109878174      0.52483610995006
  H   5.06504867148183     -5.83479653765072      0.55948202856711
  H   2.66368038342250     -5.92991938733394     -0.04886660944001
  H   1.16711157033785     -4.12872521081413      0.17459037196121
  H   2.55573868737019     -2.39809990594434      1.83434083691507
