19
Coordinates from ORCA-job 9020optt
  Br  4.32729344714439     -2.67340350188735      0.94521507539648
  C   4.49201833764206     -1.16091324775499     -0.14298940592386
  C   5.38770400345858     -0.19920254581101      0.06145438686985
  C   5.51233092997486      1.01716356882680     -0.72683510899067
  N   4.64636113120557      1.32050412934039     -1.75859612960753
  C   3.74992434430127      0.50639711275842     -2.11635842466951
  S   3.35158485611147     -1.09095144740787     -1.46265743935527
  C   6.55091069723563      1.78043207897399     -0.30871219527571
  N   7.32941424092623      1.18743243973774      0.70080338778892
  S   6.61695893475158     -0.18135299010448      1.34217044467361
  O   7.48687753660766     -1.30156083208723      1.21678175766601
  O   6.05817693759765      0.12255193328580      2.62180056673238
  C   6.95075725722687      3.10828848491791     -0.73492685159004
  N   7.90602300082313      3.75312022551599     -0.09903921973436
  S   8.04142248197201      5.19141608022971     -0.80922809722793
  N   6.85519049457733      4.93763097289516     -1.93014439569058
  N   6.35212951856899      3.77818686174527     -1.77794554173264
  H   3.09256505394846      0.76711211386436     -2.94170555378248
  H   7.77235679592621      1.80914856296137      1.36891274445332
