23
Coordinates from ORCA-job 9022optt
  Br  1.21680229472456     -0.24847768324925     -0.04235197796539
  C   2.56042382063559     -1.59903577824291      0.03568972692220
  C   3.51706750246992     -1.54858129204003      1.02938485851509
  C   4.26401376278477     -0.26709831386938      0.74110281746511
  N   4.97521983422552     -0.35872217004802     -0.31451161417935
  C   4.91054509123072     -1.53835692656229     -1.07503839804273
  S   3.19558962951777     -2.23978792476562     -1.40248275402085
  N   5.91839107741030     -2.13217664676070     -1.52868391445256
  C   5.74922433656169     -3.47612375189608     -1.91339911112561
  C   5.91152577117808     -4.39455048255767     -0.96554514823010
  C   5.32817114318887     -5.75272167155445     -1.00175838122300
  O   5.57126397496321     -6.64035271293786     -1.74951534090429
  O   4.40065975926654     -5.94576961522631      0.00823556548430
  C   3.64995668975873     -4.88529379353028      0.51321961129145
  N   2.42685236290928     -4.88929809102297      0.23919137049923
  C   4.38885628619826     -3.96840086921742      1.40586377874044
  C   4.33646152654616     -2.62656850303113      1.54978956977713
  H   4.21429087895864      0.67139344414745      1.28442371412965
  H   5.43450290818757     -3.70281282452191     -2.92704619739338
  H   6.28370540526220     -4.06735385208525     -0.00619954727928
  H   1.95291785848944     -4.11164589891144      0.69908747520707
  H   5.12762404047433     -4.48190992015118      2.01323239748116
  H   5.07193404505777     -2.24435472196523      2.25231149930372
