24
Coordinates from ORCA-job 9024optt
  Br  7.26672856566785      2.69257385455808     -0.08818149673979
  C   6.07812671107989      2.73373615787517      1.37121567946313
  C   6.47739747584897      3.05761568610118      2.61971857617129
  C   5.51177093656224      2.79511308143641      3.68740537424230
  N   4.24354749481471      2.80300527107965      3.55780021116867
  C   3.70656495924850      3.15990005447658      2.33323512472601
  S   4.43237589574407      2.36833679964890      0.91428043215899
  N   2.76979430383461      3.99144810638563      2.16058453183300
  C   2.33941725211460      4.73780762767884      3.27581628093456
  N   1.22028650347345      4.72593876251225      3.83043903450050
  O   3.29048112028302      5.61882669794152      3.74463436069496
  C   4.30637260344347      5.98622465462001      2.91241203378489
  C   5.57857085112427      5.96392311832253      3.30395945684259
  C   5.98819336790963      5.49540542095161      4.62989234492125
  N   7.07060728087895      4.89356759787236      4.92275636364618
  C   7.99617592871708      4.46051572966689      3.98285163965618
  C   7.78811182222575      3.59898109190265      2.97115800078037
  H   5.91768110305528      2.55044385888492      4.66562671562207
  H   0.62995231206455      4.01195809229511      3.41318248369372
  H   4.01006972117905      6.29302772237555      1.91595488721550
  H   6.34088044889048      6.25048829306201      2.59085593615257
  H   5.28708284808944      5.66826001873571      5.44409206783019
  H   9.01250020264350      4.77988145912636      4.18959403436176
  H   8.64031029110658      3.31102084249002      2.37071592633908
