23
Coordinates from ORCA-job 9025optt
  Br  4.68355235583818      1.26123671390866     -0.11048480160553
  C   6.44311504719742      1.69755199762559      0.45827747496929
  C   6.68565733722946      2.93260025512084      0.98559594897267
  C   5.95834535099058      3.14838469637665      2.26861345170971
  N   6.57911026633383      2.03685531294100      3.08510832687687
  C   7.13365374712145      0.91357208576409      2.49091407838007
  S   7.75181004897507     -0.28421208476583      3.63230311263066
  C   8.84077290073298      0.68780871773067      4.69655095925492
  O   9.42712226740263      0.14151369412007      5.57349866027161
  C   8.91345858894487      2.22610893080290      4.51020704720578
  O   8.51216242899920      2.94668199712624      5.37085131086989
  C   9.56634644402939      2.69183344165062      3.22677822374289
  N   10.35671651995026      1.87302892038158      2.68520442220808
  N   9.26104889689962      4.00814508242589      2.85739406594417
  C   8.49647368000480      4.21115616447863      1.88366280396369
  O   8.04618735859172      3.21795716452720      1.07429455381578
  C   7.21349540303823      0.68006592585416      1.14847768006900
  H   6.15742628955357      4.09046247408453      2.77875156702657
  H   4.88538864516114      3.00592650497087      2.16255565779895
  H   6.16212772173031      1.86897766952851      3.99201981518260
  H   10.78633928174766      2.24935898202473      1.83983359910387
  H   8.20491659510042      5.22000992040470      1.59982555425508
  H   7.66377282442709     -0.21602456708232      0.74876648735335
