20
Coordinates from ORCA-job 9028optt
  Br  1.10825441286493     -0.17288392054614      0.29799912910737
  C   2.95155334791189     -0.07913744508890      0.07820642117137
  C   3.75699694307704     -1.14900277541787     -0.02092741623369
  C   3.75184685041236     -2.62196268099499      0.09943656295977
  N   4.94349951553114     -3.12785018644769      0.07672944565903
  N   5.81278042355452     -2.06725553890239     -0.12494540166104
  C   7.13137554867139     -1.72679736158926      0.04493550380685
  C   7.25233222750554     -0.33671621709982      0.04779161288270
  N   8.57520248316116     -0.03953536028046      0.12460346596287
  N   9.24354372249082     -1.13585089541896      0.17020604242144
  N   8.38302545905956     -2.18992786955865      0.10293118130945
  C   5.91909628854860      0.22479853419091     -0.07441123839207
  C   5.14366278553813     -0.88243964455036     -0.16385271562418
  C   5.15709699813892      1.46275648875983      0.04562217341974
  N   5.57746916853925      2.64458693005276      0.20390191219655
  C   3.58845203220422      1.30727547288073      0.01898697238503
  O   2.89675221143087      2.27866737193785     -0.03315617883303
  H   2.89506449031685     -3.26739026610575      0.21337676578547
  H   8.74579272259730     -3.12719770864365      0.14583623102804
  H   6.59920236844546      2.66786307282282      0.20672953064831
