19
Coordinates from ORCA-job 9029optt
  Br  1.11359322449335      0.63481628266108      0.09054377920636
  C   2.93299180207640      0.26323823900693      0.09104993379190
  C   3.90283587468258      1.18947740282950      0.09162807815447
  C   4.11412972067923      2.65058043510556      0.09185048560966
  N   5.36855413671361      2.96544342143325      0.09220204480690
  N   6.07007056692500      1.77427815761885      0.09232692634284
  C   7.35762625722530      1.26515388764578      0.09221417842019
  N   8.61260941465374      1.64662952834755      0.09233328377285
  N   9.23161663957507      0.46856860743351      0.09235431735413
  N   8.49967551279712     -0.62937525386293      0.09206003362491
  C   7.26199670688538     -0.15477992867482      0.09195280981923
  C   5.85404528200709     -0.51495318962597      0.09164399967101
  C   5.24505509037537      0.70431142358606      0.09194838885793
  C   4.92231930088106     -1.62908130751776      0.09082359554026
  O   5.15751435895227     -2.80117894803379      0.09054142544397
  C   3.36234162717120     -1.20067741002608      0.09072932513505
  O   2.54681951660475     -2.06827787676397      0.09062755589392
  H   3.36055246113403      3.42168784264455      0.09170435422127
  H   10.23765250616740      0.42113868619269      0.09246548433315
