22
Coordinates from ORCA-job 9030optt
  Br  1.83259831045865      1.63071971203962      0.98995074025544
  C   3.40814517150213      1.04879551889342      0.14530597936715
  C   4.30970980242132      1.87575016736034     -0.42249475515690
  C   4.69278634084846      3.31675605141604     -0.25583092790630
  N   4.10692625559708      4.38746576768992      0.01420860670818
  N   6.17709075619293      3.30694552512854     -0.40429614757355
  C   7.13304849858914      4.10838221328734      0.10258801964530
  C   8.39323756530669      3.56354391615173      0.32218058855542
  C   8.67567573838443      2.18131880395442      0.21617756637056
  C   7.67785784593463      1.34227482198096     -0.26762056324075
  N   7.34687166726752      0.01708816505568     -0.10378608837649
  C   6.01694903941708     -0.02207331124362     -0.35105623590394
  C   5.49493940191151      1.18769810457703     -0.80736147255101
  C   6.53948041873744      2.05321022509789     -0.73011849142469
  C   4.96901864862322     -0.97236374178172      0.07808660468442
  O   5.03486486333356     -2.13567187878609      0.35488986364005
  N   3.69097075425315     -0.30025550086918      0.20166772465149
  H   3.10320099819394      4.25068130580097      0.11415051020702
  H   6.84991328286621      5.11467022775906      0.37417334689084
  H   9.15022583596089      4.22123957813415      0.72409734738205
  H   9.59961694457775      1.79781481661253      0.63150382479828
  H   2.97187185962221     -0.91999048825905      0.54958395897742
