22
Coordinates from ORCA-job 9031optt
  Br  1.82073527180281     -2.23807902121530      0.74963102483086
  C   3.02093504063571     -0.86420506943364      0.28818102788767
  C   2.63102180683440      0.41214329992035      0.35511624616145
  C   1.41908518282909      1.09989048348286      0.80296590506755
  N   0.80310709470185      1.75270500535565     -0.11836600415810
  N   0.86420012932255      3.07797223158208      0.31534715249101
  C   0.07685045698097      4.12747470330302     -0.17142734663056
  C   0.77146792133528      5.26723614485444     -0.30275905353286
  C   2.18532757131241      4.98804314164591      0.00099618999044
  O   3.12488849764825      5.72932890350671      0.05198313813156
  C   2.22283821081925      3.47797565962319      0.22941880091385
  N   3.29315380163695      2.80275872201008      0.10202573542075
  N   3.53800605067801      1.45857603418720      0.06678689550135
  C   4.88720718350229      1.13754103694768     -0.24993327594005
  N   5.82564994160873      1.95152991953810     -0.46881619558755
  C   5.13120470285106     -0.31361991406198     -0.34254531524845
  N   4.28476600024150     -1.23995743335964     -0.10353354489239
  H   1.48032997459754      1.51807358164185      1.81162127816058
  H   -0.97365799468477      3.94154613672809     -0.33690216423196
  H   0.38090026459273      6.23724965200846     -0.55957695893987
  H   5.51721647512026      2.91887762620849     -0.37559542282314
  H   6.13876641563311     -0.58206084447365     -0.64161811257214
