18
Coordinates from ORCA-job 9037optt
  Br  0.95736155693785      0.06707002961392     -0.05893436286238
  C   2.82222983290667      0.00664158010147     -0.05937119972273
  C   3.55248392045648     -1.18329532454569     -0.05972796929223
  C   3.41413163784789     -2.62829922355129     -0.05992650942988
  N   4.57421461810347     -3.24031090190444     -0.06024989988589
  N   5.51532356617148     -2.26249161688599     -0.06020908167633
  C   6.91602010486456     -2.11668521045111     -0.06032977421770
  O   7.75964170071975     -2.94292091683821     -0.06060639718673
  C   7.12526433620935     -0.51734334594270     -0.06005756668424
  O   8.20118271365282     -0.01999044657379     -0.06010069364691
  C   5.74833945518092      0.06654871391094     -0.05980406461638
  C   4.99637516975687      1.23692150874356     -0.05947189666294
  C   3.58866424899215      1.17121883876840     -0.05927458341657
  O   3.14002032876213      2.43001522457274     -0.05891916533634
  N   4.27314561844112      3.26199329365642     -0.05894728894834
  N   5.31090307142706      2.58641629817471     -0.05926792268075
  C   4.93252049306515     -1.03733863488788     -0.05990895071500
  H   2.50617762650425     -3.21014986596109     -0.05989267301864
