20
Coordinates from ORCA-job 9040optt
  Br  1.67975944097092     -1.85525164682283     -0.85615130499690
  C   3.08429702988534     -0.71667886431527     -0.35467287816160
  C   2.88452100427174      0.60571694101310     -0.23859857819343
  C   1.69923928544099      1.44542707800787     -0.45862286995886
  N   1.28033458213239      2.05516179092962      0.59103043165627
  N   1.31018455925406      3.40258154530503      0.28885319612561
  N   0.41674262571978      4.32106347512291      0.54876742140136
  C   1.05487125140314      5.47261373834603      0.31066071245558
  C   2.38945219645581      5.26795291653223     -0.05952445699740
  C   2.54530541648754      3.89426482636755     -0.05502462566297
  C   3.80686171396475      3.10097671511717     -0.20736348491036
  O   4.80071494657776      3.68168929366128     -0.53709520976102
  C   3.98174993996564      1.53279765924543      0.03102229290548
  N   5.18134045289883      1.22336123411127      0.34627256954385
  C   5.62587436433398     -0.07304829722556      0.51329173028491
  O   6.68367672076062     -0.37811577763461      0.96542940544515
  S   4.58785864832281     -1.47328470928978     -0.04813761321272
  H   1.58386648058463      1.89723212081219     -1.44691593180590
  H   0.52303115857821      6.40260289268039      0.42398186971530
  H   3.15031818199103      5.99693706803596     -0.27620267587234
