19
Coordinates from ORCA-job 9042optt
  Br  1.70750539501622     -1.82717940530669      0.68434015300255
  C   3.03406932708745     -0.60139812129829      0.22584329364714
  C   2.81829098826606      0.71441033777409      0.27980645382103
  C   1.67791321931314      1.56014760469598      0.65299088469427
  N   1.10095612866983      2.12934991743931     -0.34458399666644
  N   1.24598681567669      3.47599291381672     -0.12304617612064
  N   0.41226431308912      4.47036937604540     -0.34244175985529
  C   1.21428964632459      5.52341666593233     -0.21917622881182
  N   2.51260481457645      5.23558078105325      0.01445793402709
  C   2.52267972113434      3.92333587306971      0.05960869537872
  C   3.79599531464491      3.10237149155993      0.12086118462883
  O   4.82690974612254      3.66225713813779      0.26197620350702
  N   3.82418265870291      1.62321270204187     -0.04568973771222
  N   5.05832180669627      1.18693262412263     -0.44085546703721
  N   5.29436330882320     -0.02419199703647     -0.54144076650065
  C   4.34306024705606     -1.06595903340625     -0.22287683064668
  O   4.67198701521148     -2.20890514245403     -0.34082318818263
  H   1.76545155869268      2.06786319380006      1.61617839997054
  H   0.83716797489602      6.52839308001265     -0.31012905114358
