24
Coordinates from ORCA-job 9048optt
  Br  4.82201508116451      1.71421650583340     -2.31178654962333
  C   4.79874377403119      1.02154915976227     -0.56489979907663
  C   3.85395867806491      1.32657706605020      0.33865547539387
  C   3.67457009071236      0.32133108821258      1.36861409913828
  N   4.28457997751331     -0.81985225131459      1.35188844131856
  N   5.30296064003517     -0.99353752724990      0.48344834311528
  C   5.87165902085635      0.13704405752477     -0.09177790525313
  C   7.12061638075910      0.64545104533042     -0.04075654824685
  C   7.11092800812001      2.12244790587093     -0.06931862662385
  C   7.74242294785704      3.09312756283537     -0.73005977972538
  C   7.28269583093512      4.49812168529592     -0.59972389008000
  N   7.78174364931857      5.52296514671917     -1.12301859082098
  O   6.15165703004522      4.69046920676218      0.20545303324211
  C   4.98962455197791      4.16877714291241     -0.25486718221691
  N   4.19276078585452      3.61908479009393      0.53599304510182
  C   3.17384189415870      2.69089739797555      0.35515712165822
  O   1.99613498939090      2.88408275997884      0.41631217676794
  H   2.89845793947388      0.43962265011438      2.11263256349144
  H   5.84948958615586     -1.81893264410190      0.67102368029100
  H   8.00026714434084      0.06686307948185      0.20945750561537
  H   6.34494231866051      2.48450310554919      0.60619536298253
  H   8.53561482285087      2.91738350704321     -1.44725108214462
  H   8.63082818337851      5.28872049948846     -1.63336245034043
  H   4.85348667434455      4.26108705983132     -1.33200844396433
