24
Coordinates from ORCA-job 9063optt
  Br  5.28492975957850      5.07481333112184     -1.85979987667810
  C   5.73799566509353      3.60241495814735     -0.79918148027669
  C   4.85102651904240      2.85998748050991     -0.08624474934921
  C   5.31520928623277      1.57634648033732      0.37042703907241
  N   6.52979063317225      1.16375776221133      0.21084130360945
  N   7.41134848009438      2.05220020006576     -0.26121600094413
  C   7.12495436305578      3.40409972329022     -0.40766194234344
  N   7.97862225588633      4.26073475830435     -0.00730776631607
  C   7.88241305814681      5.65735157544602      0.08850143359860
  C   7.04498537983288      6.50218219312879      0.74756068607574
  N   5.83593077040807      6.31459972154998      1.41667621525159
  C   5.19821678668762      5.09816458445113      1.36215193002552
  C   3.91393325998719      4.80063171185866      1.10480556833344
  C   3.60679556594423      3.47375632000553      0.50364390201355
  N   2.49452457717944      2.87040098620568      0.43858539077942
  C   9.03167298810251      6.32320940515194     -0.47565414341174
  N   9.92997271159546      6.85412529929077     -0.95469449497634
  H   4.61154229766324      0.88667586215789      0.81711045859603
  H   8.38025517563225      1.80795330385151     -0.10618415206443
  H   7.35815749791338      7.53700179205036      0.75871564593497
  H   5.25866822303305      7.14212186322528      1.45639197822825
  H   5.91827646875827      4.30125124445411      1.44538951682685
  H   3.13573151494807      5.55476000676284      1.08632638689611
  H   1.77304676201151      3.37645943642136      0.95281715111819
