24
Coordinates from ORCA-job 9066optt
  Br  2.03519314016815      1.07202381923104      0.98340242829199
  C   3.59970547511521      0.37274060420418      0.22136715808876
  C   4.61817153163388      1.17520146931404     -0.19314747583431
  C   5.85628639757713      0.55285206698759     -0.63920049917317
  N   5.83481745159672     -0.81584924724030     -0.59650251779656
  N   4.83726859869437     -1.60612011469145     -0.25352759988818
  C   3.73530458489292     -1.06254271729292      0.15172682070831
  N   2.72463258940591     -1.92744049742024      0.58649751335987
  C   1.52455364781103     -2.09229656304067     -0.10517230509258
  N   1.08456081223492     -1.45248820703667     -1.09673571222332
  N   6.95540194846721      1.06663076248026     -1.09262502576759
  C   7.31287208434901      2.39028732484330     -1.08320070695830
  N   6.91768072320735      3.36891668477048     -0.36120901128509
  C   5.84723978268153      3.21760772355012      0.51234972861353
  N   5.82651921739219      3.50826287931707      1.74053058887585
  C   4.60285078119592      2.66251114143452     -0.13025852581628
  N   3.71769115229363      3.42961077124026     -0.59307912023623
  H   6.68382316703962     -1.28133055886040     -0.89109957747896
  H   3.07086952952816     -2.75677383399931      1.04630861359011
  H   0.91739259200030     -2.88256742701092      0.33213967975272
  H   1.73204137424905     -0.74337447147990     -1.43985065670416
  H   8.12898772899791      2.59797746441994     -1.77003080225006
  H   6.73748633922932      3.87490501737512      2.02273380063919
  H   2.95164935023848      2.91225590890483     -1.02641679541554
