27
Coordinates from ORCA-job 9076optt
  Br  1.38294292578465     -0.11805053949902     -1.57713725158546
  C   3.06394043424794      0.02857599602941     -0.76522617363212
  C   3.34731798177344      0.85620112329241      0.27916191446659
  C   4.69040519914690      0.81075853751876      0.79344087567187
  N   4.68797463955432      1.71481331929533      1.80971144734225
  N   3.47565166440988      2.31413554821962      1.98710021274453
  C   2.66765692948836      1.82844709429661      1.09849986897939
  C   1.26766374206648      2.33143088136932      0.98862018017219
  N   0.79154489175559      2.99014265819869      2.19444067499381
  C   -0.12445664317300      4.04991621424283      1.75387415084175
  C   0.44187598000414      4.58832823735743      0.43782969217909
  C   1.14655836743658      3.37774969004443     -0.14735348993130
  O   1.54303047277700      3.23521834048244     -1.26730015795829
  C   5.67287573308621      0.00335941135698      0.29805298995410
  C   5.36464277388327     -0.85355699274125     -0.81166248504866
  N   6.09001964378513     -1.68443563842050     -1.46201645232307
  N   4.02251800533993     -0.76149374586154     -1.26401782553248
  H   5.43607097321695      1.93554416988939      2.44081173227254
  H   0.60230074838267      1.50199370177509      0.72238462664529
  H   1.58446932501634      3.38015292823857      2.69247571240254
  H   -0.22187585699015      4.80652825606077      2.52875269332155
  H   -1.11291535629193      3.61355968415648      1.58971656964371
  H   1.20577627685807      5.34902179553170      0.62297687221756
  H   -0.28100415841575      4.99469195170194     -0.26689138289474
  H   6.67259855686282     -0.01532183186179      0.70574824312164
  H   7.03370833435378     -1.70702608873171     -1.09146886330955
  H   3.81570841564035     -1.37768470194241     -2.03952437475473
