21
Coordinates from ORCA-job 9079optt
  Br  1.46429546767070      1.25346886293047      0.85877483371401
  C   3.16699440906092      0.62638394376466      0.37157989072727
  C   3.59787246194319     -0.64441524792146      0.36515395848332
  C   3.02376451411638     -1.98872473528556      0.67938325437343
  N   4.17758031864492     -2.72861883295000      0.94057186165027
  N   5.33251206117880     -2.12825431498247      0.57199009163633
  C   5.03419051213576     -0.91893701859439      0.23267775523031
  C   5.98991251176055      0.08411076040952     -0.18294026653519
  C   7.41331003449736     -0.34230602028027     -0.47888796205230
  O   8.23794643912782      0.41827600580327     -0.88795169101574
  N   5.69733613920286      1.32068734618369     -0.32426924741701
  S   4.21808119954278      1.96573254366264     -0.00814834775001
  N   1.89311987854939     -2.55177608060949      0.68836438887332
  C   0.68899055851994     -1.89226260330225      0.23928023789406
  C   -0.25975554899423     -2.86729873129932     -0.30705831640177
  C   -1.05209078638006     -3.64085248207969     -0.76105091021138
  H   4.15555340099105     -3.73158197665095      1.02572139776038
  H   7.62318415916495     -1.40696168760851     -0.29245616611843
  H   0.89292257923947     -1.14157889216973     -0.53182830077887
  H   0.20179146275047     -1.37417081713798      1.07058500973725
  H   -1.75051177272306     -4.33592002188216     -1.16149147179925
