22
Coordinates from ORCA-job 9088optt
  Br  0.90727902704908     -0.02387916904135     -0.09552301561706
  C   2.77344849154031     -0.03124771299911     -0.09079978671629
  C   3.51397973845898     -1.14714223993121     -0.08927991277380
  C   3.19267272406947     -2.58178470755308     -0.09012762191652
  N   4.40871436590167     -3.18083918741730     -0.08947119389317
  N   5.47696826317535     -2.30321236495770     -0.08756718454733
  C   4.96239716412327     -1.12847449456978     -0.08729104580307
  N   5.70601114260078      0.02941334133447     -0.08565682389012
  C   5.21342191296512      1.31214235022522     -0.08526794425163
  N   5.86330293875460      2.39294855299493     -0.08289472306438
  S   3.44345504510313      1.56791246382035     -0.08894868715216
  N   2.00889239845607     -3.10273233930344     -0.09083404847371
  C   1.90966102718695     -4.46265518280474     -0.09116768313304
  N   2.85245358413973     -5.40147049344356     -0.09243156833391
  C   2.13859224699716     -6.55559297549459     -0.09222038920557
  N   0.83558116882018     -6.40213156797647     -0.09106640806671
  N   0.70495499302748     -5.06419119205754     -0.09018697592980
  H   4.54254825686422     -4.18303472253047     -0.08996344761199
  H   6.71122914528355     -0.07992037388201     -0.08418849648136
  H   6.87236495326975      2.25888502255827     -0.08091060529184
  H   2.59449568128264     -7.53216848618323     -0.09327345888676
  H   -0.19842426906952     -4.62182452078763     -0.08892897895977
