20
Coordinates from ORCA-job 9091optt
  Br  1.43836134805442     -0.61595450551250      1.17404002946306
  C   3.05364567747074     -0.21787838569197      0.29079733440316
  C   3.49300745862540      1.04003435799761      0.08122694314501
  C   2.96038945108006      2.40617226324290      0.35427700726945
  N   4.12111226571973      3.15602669379345      0.48890433043379
  N   5.24184570452308      2.51866307313136      0.00406969830787
  C   4.89491142644269      1.30952369632196     -0.24167199326216
  S   6.00662522325170      0.11515185709650     -0.84977375972182
  C   5.07876266457733     -1.30654019785062     -0.57067017388475
  C   3.83978489966498     -1.37952609154342     -0.05894360509918
  N   1.81799519276498      2.95204765560260      0.38723853480907
  C   0.61176482070628      2.28494606614420     -0.00786314326413
  C   -0.31877842931602      3.29748236409810     -0.64488676929747
  O   -1.14994051720909      3.01127222277967     -1.45779798260665
  H   4.09402960375072      4.15855068478587      0.40003143322916
  H   5.60818238302818     -2.20896169814943     -0.84833813014701
  H   3.39490335356313     -2.35286717718518      0.09103558891963
  H   0.06972997015907      1.88790893816688      0.86025590612043
  H   0.75737091528649      1.45762264642391     -0.70902482142163
  H   -0.18170341214390      4.33532553634810     -0.28690642739585
