26
Coordinates from ORCA-job 9093optt
  Br  1.08550721134682      0.33742317717829      0.10638092031552
  C   2.93740047540210      0.04736392517373      0.18143685366877
  C   3.50888763163065     -1.18283574908226      0.24578073119425
  C   3.02430497257094     -2.57855784873857     -0.04144994275224
  N   1.87517045791423     -3.09604491518325     -0.01620451628707
  N   4.16876894399794     -3.28642614526164     -0.45542098045751
  C   5.40858070581492     -2.64531751578358     -0.05802969217020
  C   6.14012472694978     -3.38752017495937      1.08024923815327
  O   7.49435477987606     -3.01204087943837      0.97843530798710
  C   7.77836666892273     -3.00475736599480     -0.40621195355256
  C   6.59107443261916     -2.30670284803593     -1.05279544892579
  N   6.69925181762223     -0.81994851221186     -1.02345546353100
  C   5.65544636507539     -0.30460061260827     -0.29439085254215
  N   5.14399887816477      0.94548376047173     -0.32478366993822
  C   3.78491584198032      1.23345437974000      0.00278768601979
  O   3.41791427034885      2.38330675471261      0.00090333269705
  C   4.90313308990904     -1.28561880312937      0.25137897437670
  H   1.17743515681737     -2.42007257490352      0.27995293708032
  H   4.08264127262615     -4.29240845379690     -0.45322542875535
  H   6.03470599769731     -4.47195011858627      0.93562715558107
  H   5.76625744586296     -3.11258532366264      2.06425842652148
  H   7.85159224334242     -4.03117054445903     -0.78764163990982
  H   8.73262718012893     -2.50333870689030     -0.56280891899557
  H   6.40580992827771     -2.63444503742994     -2.07516602237079
  H   7.61327871959103     -0.39282266481869     -1.02745470479202
  H   5.64645078551015      1.73113279769821     -0.71415232861503
