23
Coordinates from ORCA-job 9098optt
  Br  3.31511955276997     -0.75137092480786      0.69378828675251
  C   4.52009670705692      0.67805026587873      0.58982290355112
  C   4.24444250585274      1.89142362197419      0.10378534532833
  C   3.06097051426092      2.57483267922949     -0.46641609851585
  N   1.85128275767312      2.24266301546690     -0.65939167796747
  N   3.53488609577491      3.86007534517848     -0.76934245749207
  C   4.84975228341494      4.02392802515549     -0.39017850901120
  C   5.32884538211548      2.86205309036193      0.12693004783884
  C   6.67679120784071      2.37088172956131      0.31064904301943
  N   6.87872835861365      1.18233164927857      0.76070965326583
  N   5.78377172535980      0.42023664884452      1.07623737636183
  C   7.95458171457879      3.05806129653443     -0.15731967710760
  N   8.70443025076507      2.34653215717806     -0.88853814662854
  C   8.43023835215986      4.46500816821250      0.17705160704506
  N   7.75859362737139      5.50719420477992      0.43509307870765
  C   6.39558738299991      5.24952447992343      0.45754771492942
  N   5.70877778278041      5.07336508758114     -0.61056201395055
  H   1.68282547367469      1.28166787586940     -0.38171059388794
  H   2.91931777648190      4.58898305915078     -1.08907903091380
  H   6.02595422519004     -0.53001286260428      1.30378728235855
  H   9.56889883657454      2.83766344422181     -1.12894000548981
  H   9.51611893057337      4.55693707243202      0.13439291227418
  H   5.99398855611681      5.05997087059904      1.45568295953209
