22
Coordinates from ORCA-job 9100optt
  Br  1.25908591790796     -0.24331183787094      0.66487832846563
  C   3.06419239682528     -0.00729462208817      0.21517209955349
  C   3.66317867789815      1.18190880905041     -0.09968094386835
  C   2.97211850135930      2.48429055944173     -0.31070165339156
  N   1.80828444620778      2.64103848058313     -0.80231158013427
  N   3.70978229309258      3.60416047873653      0.03867799226658
  C   5.00244862429459      3.54141846696362      0.02655404459928
  C   5.80015295463667      4.75228834714583      0.28460201538677
  Br  4.85558382644924      6.33607805860415      0.71110135106367
  N   7.06853651578144      4.81081594529806      0.21609862875914
  C   7.79034479217055      3.67683618671498     -0.09864649035863
  C   7.21419777467405      2.47579108567799     -0.30721500984580
  C   5.79304996245588      2.35317506231503     -0.22182585286931
  C   5.09456875664458      1.15724263637957     -0.20793676045911
  C   5.71215206232295     -0.13944774713230     -0.22154992507818
  N   5.08443821198315     -1.24430372350807     -0.00119440969907
  N   3.77785109333846     -1.15070105041144      0.26176384765807
  H   1.39325383376398      1.75721712132546     -1.08145809411565
  H   8.86065868502047      3.81591129233741     -0.15704466020135
  H   7.83439725418550      1.62030979693481     -0.53723456133998
  H   6.77149730428698     -0.25056223868810     -0.40718980954912
  H   3.32222611470038     -2.02486110780969      0.47814144315774
