30
Coordinates from ORCA-job 9101optt
  Br  1.08835896199281      0.15858832336135     -0.76228752503171
  C   2.88846583618796      0.12757637281855     -0.23217525552206
  C   3.59205075244647      1.17612132175680      0.24689318767551
  C   3.04226869499821      2.53107014143830      0.55990604379534
  N   1.89348892528066      2.80351231965166      1.03500043333638
  N   3.93041651871800      3.55277179850078      0.33369197486365
  C   5.35249752293905      3.36541608515604      0.06308612227323
  C   6.09947272316694      4.64846777598821      0.43091092884073
  C   5.81933000662960      5.61784516844897     -0.73315084528941
  C   5.41471261789418      4.72308454710254     -1.93252774716729
  C   5.60924672861550      3.28033343636435     -1.45063955121290
  C   5.82786502364557      2.13887702091510      0.83871442567980
  C   5.00989777398319      0.94753808690528      0.44037590217521
  C   5.55728762577716     -0.26473798199534      0.22397865362554
  C   4.75686679305187     -1.39050926633986     -0.19242329629999
  O   5.09068496386833     -2.52048153861244     -0.36456265931712
  O   3.40735965389537     -1.07493015963157     -0.44144518672085
  H   1.32964308844073      1.97454368185908      1.17461756683473
  H   3.61821992526444      4.44437128605204      0.68890535633964
  H   7.16482473200677      4.41521821395232      0.48323187333292
  H   5.79775979538386      5.03131827350207      1.40703182956005
  H   6.69435539366777      6.22764758760004     -0.95226502629515
  H   5.01350125989310      6.30754651097595     -0.48106108781382
  H   5.99784554593527      4.93769976112077     -2.82616324433305
  H   4.36685996127099      4.88645748555857     -2.18170322374788
  H   6.63872398285603      2.94995512612630     -1.61596667184340
  H   4.94346123087061      2.57033001832817     -1.94233256453521
  H   5.69099234670772      2.33013598029914      1.90810320340441
  H   6.88571975446506      1.94695517191207      0.65758311801936
  H   6.61382186014669     -0.45172254911528      0.35167326537332
