21
Coordinates from ORCA-job 9102optt
  Br  1.22897700309614      0.12475568293541     -0.23502672941701
  C   3.08004634019966     -0.02217795527547     -0.04924164421462
  C   3.74876888778085     -1.19198531792090     -0.11167341010652
  C   3.41581303482502     -2.57861632935522     -0.29572256392977
  N   4.47492594169084     -3.31061276212926     -0.26483107366304
  N   5.55783458832011     -2.47312744726338     -0.06692463932434
  C   6.84980833905753     -3.01905247434437     -0.00761094463640
  C   7.80063405534466     -2.97156151834857     -0.97845967660488
  C   9.01481222926848     -3.56934900347697     -0.55830196695364
  C   8.94133540782271     -4.05750066478088      0.71255628353658
  S   7.41288897502199     -3.79343255581074      1.41908170847147
  C   5.17637700826057     -1.16773659562453      0.05041962320054
  C   5.85206851105912      0.00147734208216      0.27958345649068
  Br  7.69794518087010      0.14281826632312      0.56351956177978
  C   5.12233620385701      1.23964929087587      0.33187745264733
  O   5.51873589856126      2.34752364921726      0.50223185134489
  O   3.70046866489641      1.11199379693733      0.14987528596572
  H   2.44078188932235     -3.01507273428744     -0.44399804392250
  H   7.63486422976316     -2.50599048340864     -1.93910637450695
  H   9.90062200196550     -3.63669889588323     -1.17172700190657
  H   9.70895560901645     -4.57330329046152      1.26647884574926
