22
Coordinates from ORCA-job 9106optt
  Br  1.29662017302094     -0.16685748655840     -0.83762926843539
  C   3.10488357377834      0.04013330813692     -0.35256272500001
  C   3.66166616508008      1.26923386216962     -0.07092504087263
  C   2.97578276481008      2.59383880172473      0.11019979983524
  N   1.79346086839158      2.74998324115559      0.54577169744686
  N   3.72747071946342      3.73571889822745     -0.17422827187915
  C   5.01639722945109      3.65741288299414     -0.13496475500109
  C   5.81437719418525      4.86645547448949     -0.32970867567385
  N   7.09191724472832      4.89642775297284     -0.26537132799082
  N   7.75834483487096      3.74657164127276     -0.02338205631352
  C   7.21587044970700      2.49848747656672      0.12039785083475
  O   7.93999252477386      1.50630585504168      0.25909544843260
  C   5.77993369136705      2.46534554358213      0.08089242181713
  C   5.08160440109119      1.27125480785909      0.05229271040227
  N   5.72866556951498      0.07039167349975      0.06319435186545
  C   5.05908092697058     -1.07365658915119     -0.11454433419491
  N   3.78389539356703     -1.12633677385997     -0.34693277927800
  H   1.34468789052980      1.86575244234597      0.76294641632962
  H   5.30500125142243      5.80153392752919     -0.52242158656029
  H   8.76344570648076      3.82731169857327     -0.00764103278513
  H   6.75226688695081      0.14120153121335      0.17157524868392
  H   5.63563453984440     -1.98950996978516     -0.07305409166304
