23
Coordinates from ORCA-job 9107optt
  Br  1.17143927798675     -0.15356769652883     -0.80066254805524
  C   2.98439424496725      0.06834673216223     -0.33542049004844
  C   3.54074281053023      1.29131531571624     -0.04178249153295
  C   2.83514965389289      2.60803345867131      0.13887774978691
  N   1.65009354176618      2.74587044724579      0.57598761211902
  N   3.56908974683519      3.75980729406244     -0.14332177934334
  C   4.85508018152834      3.69581401175837     -0.07801602626144
  C   5.65221432136652      4.93262557168729     -0.27344876331798
  N   5.22418118630056      6.09064945006905     -0.53653796350699
  N   7.01672970083942      4.71388196998218     -0.11782713865536
  N   7.67642522031149      3.56162557557160      0.10508701260350
  N   7.01795174615789      2.50594144459271      0.22879610420900
  C   5.63509253225570      2.53434131214981      0.14943048012277
  C   4.96371383379001      1.32269599786270      0.10474894774216
  N   5.66449824762951      0.15558312999342      0.11071776144516
  C   5.08691998681503     -1.04221034441936     -0.09396166005814
  C   3.75338290769860     -1.12275570287927     -0.34067124148139
  H   1.21891080088874      1.85556011770346      0.80185147629927
  H   4.20614019803205      6.05724420721925     -0.59159289922120
  H   7.62264833406811      5.51395309499502     -0.21992674696118
  H   6.66921820154479      0.25823875229300      0.22014607126448
  H   5.73455284303837     -1.90641715348451     -0.06780358221403
  H   3.28743048175632     -2.07657698642394     -0.52866988493461
