23
Coordinates from ORCA-job 9109optt
  Br  1.12004144390332      0.06980488037519     -0.77844232869461
  C   2.88234757220251     -0.03777289350379     -0.13850487241533
  C   3.67638702790545      1.03408121035258      0.03643026932579
  C   3.56083870234246      2.47145121222634     -0.40914300458910
  N   2.56942883377966      3.18471807941705     -0.71653845026694
  N   4.87878226118179      2.95418241188856     -0.47936921574147
  C   5.77731499821145      2.17608385610005      0.33973694482267
  C   7.14276026666745      1.68459064735224     -0.18019285700006
  O   8.09372851285897      2.30892261310379     -0.53009259012898
  N   7.12398858660014      0.25987192458468     -0.02510279067687
  C   8.28358142804744     -0.51019167573278     -0.18598129127553
  N   8.44493927732212     -1.73463426638964      0.05441707189327
  C   5.81542847748753     -0.16177210709465      0.24591958036944
  S   5.14766856605400     -1.71955447960986     -0.06772120836573
  C   3.36600468778381     -1.40045849208778      0.15334310656677
  N   2.59638081345423     -2.36207280969417      0.40964809635661
  C   5.02659272106664      0.89896045889106      0.46890829383336
  H   1.69751781845478      2.67149791464681     -0.64232942545550
  H   4.97547819251361      3.95744930504726     -0.52771533201855
  H   5.99569727306302      2.65708322783509      1.30303512304093
  H   9.10377247233877      0.09837494710169     -0.55713687993581
  H   7.61927474706820     -2.20199931081169      0.42528765234334
  H   3.07504531969260     -3.24761665399801      0.55954410801231
