19
Coordinates from ORCA-job 9110optt
  Br  1.18553850155724     -0.17320510598195     -0.83596286042557
  C   2.97869339031699     -0.03132943102925     -0.29260005447589
  C   3.56419508896835      1.14713528257941      0.04871225458501
  C   2.85349190377459      2.46255700676758      0.22309336878869
  N   1.71128551961471      2.59962613837455      0.74906101115455
  N   3.54610954048812      3.61960960028729     -0.15546097391501
  C   4.82070620371397      3.57886500143892     -0.08221953955161
  C   5.62014227118153      4.80794054901446     -0.39507302551698
  O   5.18572353931803      5.82128540455853     -0.82779470882363
  O   6.95695896364945      4.70274674217911     -0.12695651698608
  N   7.63080810677838      3.50049963628807      0.27075124528389
  N   6.97599335851841      2.48540199659127      0.42423175626949
  C   5.60199996467912      2.42453911946766      0.26062732339708
  C   4.99405649484502      1.19546529430554      0.26581888991393
  S   5.92496091244258     -0.24588749831583      0.44250392043610
  N   4.89746250084580     -1.46337149119689      0.09349741958713
  C   3.67615304418292     -1.29837715842818     -0.25515950306843
  H   1.31317860882909      1.71088129907876      1.04318348330495
  H   3.11254208629567     -2.19238238597906     -0.50225348995764
