22
Coordinates from ORCA-job 9115optt
  Br  1.12645790349614     -1.52503684723917     -0.94322787215855
  C   2.95952209132951     -1.08173585591618     -0.79868464829296
  C   3.51621262597747     -0.89974213034272      0.44165518212900
  C   4.92981781282650     -0.56099020677316      0.51105985391094
  N   5.60188923327802     -0.21121182909180      1.53526217979364
  N   5.64508045081734     -0.84196126046160     -0.66624121178515
  C   5.07412020693956     -1.48586560681423     -1.71179367206128
  C   3.73606490049272     -1.29385683146607     -1.96763554113492
  N   5.89444522069985     -2.60240954314005     -2.02348707644888
  C   5.20554112960250     -3.63963946692753     -1.73074753509380
  N   5.70330079561184     -4.66328273399169     -0.92192400796201
  C   5.31073136693785     -4.47974004502344      0.26729936209048
  O   4.53786005054221     -3.37708447261304      0.53830066667700
  C   4.01143278886747     -3.02654978763726      1.76785188813409
  O   4.16844920125645     -3.64982011497323      2.75640853243777
  C   3.07373797217171     -1.75088141029378      1.57654010230293
  O   2.09924125795903     -1.69579058538559      2.25819418847822
  H   4.99527339301758     -0.01217875844437      2.32563869990564
  H   6.62125162006845     -1.06068186239868     -0.49924849073431
  H   3.27041359777221     -1.72408035714746     -2.84020455074741
  H   4.12556049876223     -3.70018127164702     -1.88588471064667
  H   5.54259588157306     -5.13127902227181      1.10186866120623
