24
Coordinates from ORCA-job 9117optt
  Br  2.14817960114030      1.24387050597500     -0.03184563410604
  C   3.94089045985500      1.87144340548839      0.02682954430004
  C   4.22211590129614      3.19812999145889      0.08381547925121
  C   3.29134903498597      4.30035756606242      0.01825245153107
  N   3.64063638683371      5.53611834003940     -0.08668751695117
  N   4.95799151038593      5.79575252459623     -0.14582016274038
  C   5.93144001572299      4.86353053343692      0.00702272826630
  C   5.61374721550566      3.55546448687947      0.19131117669560
  C   6.60218449199545      2.51886755561767      0.48347617290564
  C   7.69696445270434      2.82372126628502      1.23056852055611
  N   8.66443396347786      1.84616033065996      1.40722044021130
  C   9.02016876919327      1.36036323181905      0.30445489096286
  O   9.36398111600627      0.04940185639588      0.19916288210715
  C   8.19492964100260     -0.58724673787197     -0.13020479791736
  C   6.93895662046740     -0.10861704676073     -0.17348230490761
  C   6.16775608157250      1.14283689428393      0.07206688281032
  N   4.89294161573113      0.91993434073015     -0.07878856690233
  H   2.22592622045580      4.11519472576243      0.05713755010261
  H   5.18159338415383      6.76839086203242     -0.26624630765925
  H   6.94969082720636      5.22669281094474     -0.02291026156818
  H   7.76375336319851      3.74483506889363      1.79509209799035
  H   8.87530327756046      1.85027624034046     -0.66267744898098
  H   8.38667081012442     -1.61762633996743     -0.39326070360938
  H   6.23839523942403     -0.87985241310195     -0.46748711234788
