23
Coordinates from ORCA-job 9118optt
  Br  1.25283623289312     -0.26188335436436      0.50458565050775
  C   3.09103662631901     -0.05105738373122      0.28255837588386
  C   3.73607396847714      1.09731431042273      0.10188506693905
  C   3.29174352792956      2.51678679998603      0.02041490694838
  N   2.16896288182827      3.09950881904526      0.11866147448061
  N   4.47643565292994      3.20194696255439     -0.20652407602820
  C   5.58316914765110      2.35886804111533     -0.25823986636112
  C   5.18776906191178      1.08793447994893     -0.07718362539231
  C   5.82611346297572     -0.19617545514424     -0.06429278282903
  Br  7.68477275098320     -0.31157793709744     -0.31190143330619
  C   5.09308303426055     -1.30140598048581      0.14798938457585
  N   5.57727310243764     -2.58277841273766      0.29641610963550
  C   5.03047820511336     -3.73710468941066     -0.28041007428794
  N   3.96775868683173     -3.86156928429390     -0.95154273628536
  C   5.85746343205386     -4.89654188629172     -0.01486004570890
  C   6.56804395150684     -5.83168817362121      0.21230252972314
  O   3.72661133498830     -1.24968668008312      0.33152034731987
  H   1.41505173115503      2.44286614799737      0.28608792678695
  H   4.49301939889680      4.20238433902832     -0.29567145029278
  H   6.57286578920534      2.74779735764652     -0.43166941369220
  H   6.54652197555274     -2.64836370673148      0.57012722356376
  H   3.47239693019758     -2.98174898642598     -1.06758120555480
  H   7.18651911390133     -6.67582532732605      0.40632771337412
