25
Coordinates from ORCA-job 9119optt
  Br  0.89390190249921      0.00931869897962      0.02614828634341
  C   2.78320185553404      0.07405868292030      0.06993245367562
  C   3.46157988414884      1.26155033364327      0.08843103443673
  C   2.99771656679920      2.68869160951480      0.11809690316542
  N   1.85269364556814      3.22271931351308      0.20472474081449
  N   4.15194093621737      3.43461617694108      0.04425303649940
  C   5.38113652119969      2.68450464744604      0.11248628549925
  C   4.87944594828613      1.26700172565181      0.09353750238987
  C   5.60517815501807      0.11703244343397      0.08562742485794
  C   4.91923102538515     -1.11550378330823      0.08207977720498
  C   3.50098406395211     -1.15663778405131      0.07490059665141
  C   2.89972649419821     -2.43255598304607      0.07930029232086
  C   3.69251566975372     -3.54691831999000      0.09286278125779
  C   3.08409498934235     -4.90875951997786      0.10906818501269
  O   1.90040106822254     -5.10855513518580      0.10568834944323
  N   5.04886690016963     -3.51835740686628      0.09641065919853
  C   5.62229879503397     -2.35008641937414      0.08957360631190
  H   1.11207719060784      2.53501615236090      0.23689172690586
  H   4.09853615923928      4.42812113339158      0.18867047577679
  H   5.94522891248130      2.88663540581246      1.02883327343426
  H   6.03621536096179      2.88635456296088     -0.73956400050229
  H   6.68900484286792      0.12769589818730      0.08667193802804
  H   1.82577155256997     -2.55629924803291      0.07710694500657
  H   3.82137933035841     -5.72999885703188      0.12693515598070
  H   6.70887222958505     -2.32764432789260      0.09233257028654
