25
Coordinates from ORCA-job 9121optt
  Br  1.29384208722447      0.25665094598137      0.36762319823599
  C   3.12465526173505     -0.08435868238379      0.20666433057149
  C   3.68138902965903     -1.29425802373584      0.08083868692200
  C   3.14328445930647     -2.67741329584466      0.03539374888133
  N   1.98055368790239     -3.15627120118600      0.18584385929059
  N   4.24474781828360     -3.46698557049636     -0.22988063540184
  C   5.52129041605556     -2.78683254247095     -0.17975622773611
  C   5.11092982602007     -1.34282570810847     -0.06432784965863
  C   5.87797624717413     -0.24301874522418     -0.06405861488779
  C   7.36518586898412     -0.28643322266109     -0.19193429616812
  C   8.06459045030284     -0.47422314716763      1.15111952722889
  O   7.53696462746028     -1.01593066121051      2.08386256516783
  C   9.43955997772124      0.00616475606054      1.20791352148157
  C   10.56190287809265      0.42463471525173      1.20649041349230
  C   5.23521608346060      1.05160828869549      0.16429003820674
  N   5.73944449692265      2.19485338400200      0.31937534770572
  O   3.84091913448075      1.03589750129638      0.22189094155034
  H   1.29408760609602     -2.43184198523758      0.36001624060325
  H   4.15788368377920     -4.46129842153604     -0.10475993665964
  H   6.11480106936239     -2.96579191445213     -1.08131895008843
  H   6.12275506126309     -3.06981527573572      0.69085216745298
  H   7.76357599523303      0.59620688421325     -0.69361992507270
  H   7.67003522683481     -1.14403443892324     -0.80132550211938
  H   11.56218689255959      0.79005220776905      1.22582200021824
  H   6.75222211408588      2.17126415310440      0.27198535078337
