22
Coordinates from ORCA-job 9130optt
  Br  1.40238090249122     -0.86875058573231      0.51498461379332
  C   3.24760307860869     -0.58119731930639      0.22534609809280
  C   3.70977603436341      0.66676734275963      0.02803018681519
  C   3.06512923115192      2.00951042114818     -0.10358472297600
  N   1.88011136967474      2.43666857390887     -0.04562003163008
  N   4.14004164804853      2.87348444172872     -0.35908373689771
  C   5.32843588990389      2.20375801637217     -0.35697659329569
  C   5.11829677540955      0.87552133760873     -0.13659007247804
  N   6.04075216328244     -0.10974907083594      0.04229492870319
  C   5.62386097482663     -1.29157788037748      0.25827617358190
  O   6.61665923350908     -2.13410556630228      0.71485289252848
  N   6.05021522461655     -3.42774911466587      0.74890512260849
  N   5.70701200078893     -3.69542567503527     -0.38987025880506
  C   4.35984075855386     -4.21405690376513     -0.34074829374668
  N   3.87111066396555     -5.33760750085978     -0.60609243582997
  C   3.61503080386798     -2.97567591790528     -0.06523703479971
  C   4.15850938460920     -1.73404174108344      0.15835713410371
  H   1.22102439231145      1.68994491243954      0.15025371028688
  H   4.00473672619649      3.85937949123870     -0.50048701125827
  H   6.26815191429618      2.71327330766994     -0.50116522879798
  H   4.59106046200884     -6.02625031414557     -0.81626951557222
  H   2.54326036751483     -3.06612025485975     -0.17157592442656
