24
Coordinates from ORCA-job 9134optt
  Br  1.20093524744100      0.20266787892615      0.30330181277390
  C   3.03607432137559     -0.11199693126225      0.17556328178173
  C   3.61046413979100     -1.30221548969699     -0.06393930076717
  C   3.12117796595728     -2.66777791525650     -0.30657770679967
  N   1.94408100749973     -3.13491241810497     -0.37761592288133
  N   4.27610615225737     -3.44012587639232     -0.47290831992528
  C   5.52412304375909     -2.68714513068534     -0.35807819778691
  C   5.04759288963853     -1.29022733029133     -0.09971190905576
  N   5.79643289445602     -0.26792538213214      0.06021380384516
  C   5.17588776828617      0.95156783625882      0.29036260150299
  N   5.70964053909680      2.06728277612350      0.46050223275830
  O   3.75514629453649      0.97459421559269      0.34952745561483
  C   4.39214165880325     -4.80831878303860     -0.75492150540596
  O   5.49187933945189     -5.29759903216242     -0.87366128876294
  N   3.21306078727962     -5.48335461439489     -0.87565932762493
  C   3.17392442059773     -6.84351234738295     -1.17143241583400
  N   2.13176760325971     -7.54020704395188     -1.30997501755412
  H   1.23935134864362     -2.42199722875830     -0.23222856972742
  H   6.11236884311285     -2.74891181000098     -1.27437749898297
  H   6.14151742895262     -3.05890720881824      0.46086731667133
  H   6.71967122904961      1.96729867937564      0.40706670117691
  H   2.35434299165845     -4.94692677873224     -0.75229238048039
  H   4.15903197989396     -7.28598634386212     -1.28269577030537
  H   1.28128010520158     -6.99136372135232     -1.17933007423093
