24
Coordinates from ORCA-job 9136optt
  Br  1.10048201140890     -0.01886044010425      0.64305463815827
  C   2.93941888663462     -0.07938317570040      0.25646237010337
  C   3.61887314698918     -1.25447983367516      0.21783923775310
  C   3.25705611572996     -2.68614210537342      0.38302347736846
  N   2.19063915291682     -3.28056699667012      0.72409310172870
  N   4.41371591150637     -3.36919889137480      0.06758105904604
  C   5.58271487004835     -2.54588851481725     -0.13913812027269
  C   5.00429431645766     -1.15836728249902     -0.07077060306233
  N   5.69446371893496     -0.08235696278774     -0.23953574329471
  C   5.04946970399778      1.12480548668109     -0.12458580995579
  O   5.58953761224085      2.19534100178831     -0.14780401801484
  N   3.59635750551114      1.08579036960528      0.03364927159851
  C   2.92857851981649      2.33221069083475     -0.06861652253738
  C   3.18311468699497      3.46264183766313      0.66857857402680
  N   2.35344189697087      4.39900393767649      0.18138212333991
  N   1.58813085667117      3.96606240582632     -0.82447820933457
  C   1.93500072748020      2.70603500734232     -0.99527145277760
  H   1.43625034190900     -2.63335331991488      0.91357815080772
  H   4.46120700312577     -4.35325925342595      0.26839877732829
  H   6.05576263827092     -2.70905261833245     -1.11047180539338
  H   6.34358675506392     -2.66823889824834      0.63728605466714
  H   3.89962840978392      3.65745104262554      1.44667722099954
  H   2.28069335592993      5.35894540049062      0.47204710752979
  H   1.46558185560620      2.10586111238992     -1.75797887981236
