22
Coordinates from ORCA-job 9137optt
  Br  1.11359852469009      0.33582423294263      0.41339969023339
  C   2.93996159477101     -0.03294966473149      0.27049573533240
  C   3.47269449210751     -1.24401813757718      0.02542912911899
  C   2.94145558355416     -2.60515892565892     -0.19842562780108
  N   1.76504333337914     -3.07335176091001     -0.19062209326911
  N   4.06618737294206     -3.37891213417800     -0.44557974689768
  C   5.32863675651281     -2.65942459415671     -0.41085414650571
  C   4.89592266830327     -1.26256773915652     -0.08328659835765
  N   5.69631057526568     -0.26743500231550      0.06323831670884
  C   5.14778151312071      0.95313492290696      0.37563169445150
  O   5.71239546171345      1.96324126236778      0.60512837774635
  O   3.70238568118513      1.02437018508662      0.42733663040645
  C   4.05054145528734     -4.73465397440013     -0.71142834014086
  N   5.19328810488017     -5.36345404780449     -0.95301609179647
  N   4.80980896292358     -6.60933274363688     -1.15543764024943
  N   3.52629685203962     -6.84451645943839     -1.06931649237942
  C   2.99367778711933     -5.66433123104189     -0.78377549009473
  H   1.07878323722675     -2.35506686022638      0.01099847018010
  H   5.84873673218248     -2.69837952722776     -1.37130494667441
  H   6.00515711367838     -3.05578233079451      0.35012205809191
  H   5.47308925734019     -7.33529373272408     -1.36830155339532
  H   1.94024693977710     -5.51694173732512     -0.64743133470808
