22
Coordinates from ORCA-job 9138optt
  Br  0.96904964442618     -0.06679224103014      0.30199069644969
  C   2.80209831671217      0.14533860932446      0.12218048944606
  C   3.47993468237223      1.28066880784250      0.03365819331015
  C   3.13641170708405      2.72722332328626      0.03389588385057
  N   2.03730036821083      3.35499566539693      0.05443604003528
  N   4.37649359669838      3.35328060418281     -0.01719105151218
  C   5.42512252179964      2.43189220967627     -0.13056696306271
  C   4.91411253194284      1.19911752173584     -0.08791451974526
  O   5.55209211512889     -0.01037575387953     -0.10157142139616
  C   4.82010169452361     -1.13522407381314     -0.08808007781852
  O   3.46448275586597     -1.04977753655871      0.08440886945560
  N   5.39748508677032     -2.23787254663908     -0.21221453627604
  C   4.74425907316643     -3.45658431021428     -0.19674473652681
  C   5.39063410249263     -4.65354290096876     -0.36667673052402
  C   4.47632459863320     -5.72641383928537     -0.30483073620079
  N   3.21886730130991     -5.41379545704054     -0.10194122538389
  S   3.05952942555257     -3.79064720382924      0.02401050511842
  H   1.24479785343206      2.72175197270083      0.09084323498000
  H   4.45432131720372      4.33810232790695     -0.20080573527566
  H   6.45093088477487      2.75061749939666     -0.20222305657140
  H   6.45501260765800     -4.73193465897617     -0.52359632890673
  H   4.74063781424137     -6.77102801921449     -0.41106679344559
