22
Coordinates from ORCA-job 9140optt
  Br  1.07748954936934     -0.01373520475852      0.86587297339261
  C   2.85830325487752      0.09864827211928      0.29881389818881
  C   3.48626112371529      1.26030531549925      0.11639839206880
  C   3.09511529182617      2.69598834261756      0.16402478698336
  N   1.99416274270597      3.30330474107047      0.33078589703229
  N   4.28651167792522      3.36419175298844     -0.08156907874955
  C   5.34973718868046      2.48511230326182     -0.31135944777687
  C   4.89293558884350      1.23486139705533     -0.19526888669787
  O   5.59651577800286      0.05978429450269     -0.20878495085988
  C   4.96732986106028     -1.12240111416682     -0.06505833712797
  O   5.58864595947086     -2.13694473689145     -0.10621237371876
  N   3.56934837490023     -1.10047495394068      0.13099967214266
  C   2.90463505961166     -2.35449850123732      0.03257154862047
  C   3.15348341973549     -3.44776069986434      0.80978231067089
  S   2.15462281276206     -4.70879351665925      0.29311543810819
  N   1.42001646803421     -3.85697933523304     -0.90020099712714
  C   1.91118917403104     -2.64714789370237     -0.93929224391582
  H   1.22886947542934      2.66156263207860      0.50360308687706
  H   4.29761800166325      4.35139569719276     -0.26750993767293
  H   6.34999536630444      2.84171083669083     -0.48768348310543
  H   3.87723530131438     -3.54474753225426      1.60255721509795
  H   1.54597852973636     -1.94138209636898     -1.67558548243087
