23
Coordinates from ORCA-job 9143optt
  Br  1.24618756601188     -0.20970112674800      0.23306405568557
  C   3.09138694385992     -0.02353631142826      0.00278042363847
  C   3.72425013305824      1.13664025218708     -0.17205204544284
  C   3.22487339452839      2.54148510963796     -0.15162301742609
  N   2.11122085709233      3.08326808752776      0.10971822424242
  N   4.35377957792683      3.30488954571319     -0.46298192410268
  C   5.48954157181003      2.50369646717615     -0.55127488949814
  C   5.15678548260883      1.21360721222550     -0.40759782067212
  S   6.12366111918854     -0.21455542331819     -0.63647016249185
  C   5.04138627768886     -1.44264952404470      0.04147809422993
  N   5.41642181811517     -2.57158195066527      0.42360637160464
  O   3.68095650696384     -1.23603715016626      0.04605168266439
  C   4.38792241705352      4.73371208642032     -0.21160976042058
  C   4.93362017838689      5.03104542552673      1.12489909537280
  C   5.38290141407371      5.23029680494398      2.21499961701888
  C   5.14487376666862      5.43142726615775     -1.25986719488351
  C   5.76906314211791      5.99302731846251     -2.11092235086074
  H   1.38721182333182      2.40490885307133      0.31239875475414
  H   6.44768074626518      2.95214042616910     -0.76354982641458
  H   6.42698891914545     -2.67067818647544      0.38792773148013
  H   3.34305466741172      5.05554339152680     -0.24242995813296
  H   5.77987918656333      5.41221906698791      3.18538453755075
  H   6.31435249012885      6.49883235911203     -2.87192963789600
