21
Coordinates from ORCA-job 9145optt
  Br  1.55114004275639      0.48500822110193      0.29286383326510
  C   3.17593653387599     -0.42634261759112      0.39872969727640
  C   3.42117046978800     -1.66946009027270     -0.03961458166974
  C   2.43727047984258     -2.61196527779954     -0.62803053678948
  N   1.23284729515379     -2.77858174852266     -0.27726950750965
  N   2.93007549540753     -3.41742040827418     -1.67479644751203
  C   4.18226996172567     -3.64032381409036     -1.73685728053336
  C   5.18425128577288     -3.07842415346003     -0.83686714631330
  C   4.82137292055799     -2.07360423704816     -0.02374066843076
  C   5.67893469588969     -1.27898950272988      0.84665804261261
  N   5.33329236697452     -0.13611263288878      1.32134045895735
  O   4.10960737869787      0.37229545496934      0.95012151853952
  N   6.91809188852490     -1.67992419627117      1.34240512912551
  C   7.58310402844477     -2.68214504637759      0.96004030544514
  C   7.40966387539511     -3.68875550065916     -0.13587445923033
  N   8.22170455711366     -4.63430094795654     -0.29877289575678
  O   6.42915013408696     -3.58499603769265     -1.06613135625424
  H   0.99284941306267     -2.19395366404756      0.52018487296632
  H   4.56013488862845     -4.28712724050218     -2.52582122015188
  H   8.50418817073364     -2.87066729559630      1.51166855463790
  H   8.96294411756682     -4.61220926429066      0.39676368732569
