29
Coordinates from ORCA-job 9147optt
  Br  1.58623170988482      1.05118616494496      0.01631666573817
  C   2.87724968243777     -0.03472982544830     -0.79712439118501
  C   3.82874103540214     -0.69530667119098     -0.09821369500354
  C   4.21620694532099     -0.85880464734300      1.27448501392438
  N   5.24233503426713     -1.64065515068171      1.35893156051092
  N   5.58586041498033     -2.02483825138314      0.08586864151684
  C   6.74151537647116     -2.87795878286405     -0.10546337833819
  C   8.07427124307152     -2.12136362882683     -0.06192099742830
  C   8.23312444927454     -1.09759246632107     -1.20479756567459
  C   8.77726572346224      0.15896238646464     -0.52102595285018
  C   8.12214714767442      0.07619374924026      0.85003525305733
  N   8.25862342217850     -1.34375013152274      1.16859572204250
  C   4.75903424969560     -1.49122484273212     -0.84423757768673
  C   4.70893461873712     -1.60822600239770     -2.21004945651005
  C   3.70057838801973     -0.91236150009389     -2.93017683871771
  O   3.46494196166588     -0.86273906655400     -4.09531284529035
  O   2.79413310695568     -0.10974249641538     -2.09278961573794
  H   3.76197998062861     -0.43479069897634      2.15527686856229
  H   6.62630442645778     -3.38882505148741     -1.06303432479730
  H   6.71167410441795     -3.63026852902213      0.68390688798837
  H   8.85294170405247     -2.88798154373957     -0.12779144721513
  H   7.26063741102966     -0.87242463237445     -1.64671873121105
  H   8.87705141515759     -1.47034928445621     -1.99984813150299
  H   8.53235417195145      1.07291550903687     -1.05954198410155
  H   9.86063278833292      0.09827388820084     -0.41029419336801
  H   7.07224615923934      0.40024802327604      0.78480827449994
  H   8.62065220373922      0.68668705058345      1.60300007621732
  H   7.62994557783724     -1.63312513470372      1.90670601987594
  H   5.40038554765598     -2.19640843321228     -2.79258985731540
