23
Coordinates from ORCA-job 9153optt
  Br  1.16424780549529     -0.24039381827962     -0.39211517933049
  C   3.01564046056633     -0.03914951016483     -0.19646362605336
  C   3.63755090193358      1.14646563545901     -0.09106581280552
  C   3.21864406127435      2.57665455173349     -0.07128438926633
  N   2.08086083932357      3.13128921409554     -0.01542422104251
  N   4.41440418803845      3.29782646472158     -0.06810831687953
  C   5.52258592917056      2.41881738110312      0.08477090455579
  C   6.89329682957760      2.80696855423876      0.06696750563552
  N   7.85969249825512      1.95872484569940      0.23847861795754
  O   9.04264191399752      2.71624167226515      0.12566335577456
  C   8.74367092112236      4.01953971575230     -0.12627729991447
  N   9.52636993598979      4.98256292643597     -0.32103650092068
  N   7.36119972862067      4.07647510023069     -0.12286579185877
  C   5.07347651924472      1.14280252157945      0.04348092066886
  N   5.73300974228507     -0.05355742876421      0.03584813504789
  N   5.11212599619545     -1.22324115106589     -0.07142622988106
  C   3.82605576784219     -1.23899913923786     -0.17722850889581
  H   1.32969026774341      2.45013908389375     -0.01876371402090
  H   4.38722001308390      4.19435381565733      0.39482996887639
  H   10.49580760110110      4.68570059841425     -0.28071365230207
  H   6.84601974953101      4.87733146312161     -0.44468141644384
  H   6.74233590896665     -0.07597975158502      0.11361973962789
  H   3.36045242064127     -2.21057274530400     -0.26420448852909
