25
Coordinates from ORCA-job 9159optt
  Br  1.19887626903423      0.16202790914103     -0.64842316543369
  C   3.00560603513060     -0.04009205420142     -0.17450454106465
  C   3.64296566224397     -1.22968117059036      0.02892882645914
  C   2.96379095368103     -2.56028164271869      0.06680896007881
  N   1.81477704043733     -2.80073549957578      0.54224007296715
  N   3.73894818542760     -3.61305924113747     -0.44041557076815
  C   5.16016063401306     -3.43237357054450     -0.72685135860783
  C   5.77297173641194     -2.50170487536690      0.30673690611226
  C   5.06601905329424     -1.18095195271259      0.24455920165765
  N   5.75550881717453     -0.08324308787656      0.32363284361137
  C   5.10524828839590      1.08293600127450      0.19247582772233
  N   5.58878164865332      2.29729937586507      0.25280013511217
  C   4.53456929920627      3.12342664357387      0.01807616676566
  C   3.37141690559994      2.43706317285180     -0.20036527617431
  N   3.71658920461548      1.11075943699601     -0.08486661784574
  C   3.17890917183993     -4.86411153528516     -0.64049108482896
  O   3.81127315093173     -5.80490395566383     -1.04496808256455
  H   1.36015557106922     -1.96486662613104      0.88864173092411
  H   5.29427624215707     -3.02640841366162     -1.73330423299883
  H   5.61247695342795     -4.42038750997133     -0.70090529364986
  H   6.83225946334936     -2.34022082437968      0.11934832528217
  H   5.66227821711411     -2.94110561583955      1.30255285540110
  H   4.65563011013963      4.19463073803946      0.01567804738495
  H   2.36738446022009      2.75492238140326     -0.40958153830336
  H   2.11312692643142     -4.89493808348849     -0.39880313723894
