24
Coordinates from ORCA-job 9162optt
  Br  1.12388458737824     -0.25284274662164      0.14797152156534
  C   2.99303006182316     -0.04982295566075      0.11204728114783
  C   3.63390989846710      1.12522822513365      0.03857939533397
  C   3.16954777901466      2.53143016996486     -0.02713994375146
  N   2.02748353325524      3.09771980290428     -0.03927530132116
  N   4.35373220173048      3.24765069642410     -0.08040974231100
  C   5.48944521006919      2.43358954616422     -0.03371292668531
  C   6.85026553423373      3.04194604197484     -0.04389241417929
  C   7.10299524168081      3.80396406100040      1.22202676209087
  N   6.56268441202324      4.97260774619792      1.47183427032987
  S   7.03911526277613      5.39033399550186      2.95455788725276
  N   7.93851622249292      4.04440287404386      3.23559406969414
  N   7.88194694986928      3.27177244272045      2.21757575110432
  C   5.10512686425666      1.14420550876728      0.03695501688298
  C   5.79686393607568     -0.11717856984083      0.11266506808298
  C   5.07695465040396     -1.24565945719538      0.17946777494018
  N   3.68563569519698     -1.22913889984286      0.17201493097419
  H   1.27406385512583      2.42280729500704      0.00057679744920
  H   4.36451236793127      4.25385934964895     -0.04298482504020
  H   6.95553077128933      3.72351285146405     -0.89230415183899
  H   7.60109596335270      2.25945145161367     -0.13381428469363
  H   6.87586089211246     -0.17408350538683      0.13116962889066
  H   5.51873074114680     -2.22814201278171      0.24885663510568
  H   3.17106736829406     -2.08861391120148      0.25264079897605
