24
Coordinates from ORCA-job 9164optt
  Br  1.05417661980438      0.11091689966305     -0.07291387276682
  C   2.92541296119899      0.02650610252684     -0.00345631570859
  C   3.64536768209491     -1.12006168013566      0.08323525223118
  C   3.27674890947097     -2.56178858610064      0.15156265536524
  N   2.16514119024084     -3.16072405859872      0.24579047572727
  N   4.48284958533341     -3.22286536643435      0.09059360978315
  C   5.65814944952111     -2.38771462787502      0.18543616059404
  C   6.43402730773187     -2.59768772999148      1.50144794537580
  C   6.83667600584212     -3.99408216530384      1.62840846702513
  C   7.13271060150691     -5.15287351964248      1.68633471780366
  C   5.05999123692069     -1.00839423182659      0.08880431222294
  C   5.71193255634807      0.18374630271615      0.01696485415321
  C   7.13680799836546      0.25379226662050     -0.00594978302231
  N   8.28431001330754      0.24749069848515     -0.01855297298062
  C   4.95170903045985      1.42596294906009     -0.05833602460993
  O   5.39319656111691      2.54537343696848     -0.12053241056254
  N   3.55618969290223      1.21957673037794     -0.05874341037389
  H   1.38279057218713     -2.51888208696809      0.26711732076804
  H   4.52420800201098     -4.20802903862520      0.30115518266107
  H   6.34433591404907     -2.56136506765755     -0.64945802235864
  H   5.79452416368115     -2.31997598896804      2.34298556510535
  H   7.31529807386280     -1.95337043101338      1.51460003359169
  H   7.41310723406140     -6.17742176691478      1.75042590467628
  H   3.01233863798115      2.07087095963764     -0.12591964470070
