21
Coordinates from ORCA-job 9165optt
  Br  4.93917398423881      3.44644643996889     -1.26711628484261
  C   5.80796916761000      1.93763008377578     -0.56500552126536
  C   7.12289329496677      1.92545770599859     -0.31285221688269
  C   7.76629424231671      0.76147909329506      0.30649495126090
  N   8.61059594891722      0.71600328501387      1.26647278681845
  N   9.09178334994225      1.79941194522080      1.88213355430065
  C   9.24496619499529      3.08280681515047      1.45915006816562
  C   8.86909094687683      3.67816376853069      0.30165569392630
  C   9.30467614716972      5.01278182547049      0.05222377437291
  C   9.65383815134403      6.13558354522663     -0.17983903871810
  C   8.02977098531469      3.05877980339388     -0.73845631590694
  O   8.01573838801453      3.44151312652069     -1.87647456862061
  C   7.34957280012167     -0.62053218427103     -0.13045419315961
  O   8.09079027960620     -1.54831425349819     -0.21394632628408
  S   5.60787726146426     -0.84790108767980     -0.43104412287764
  C   4.91526919243499      0.78948329227242     -0.26437792916125
  N   3.69321303129032      0.95745798195582     -0.01476794547827
  H   9.61540706964315      1.54292340780804      2.70334968243236
  H   9.82655186852498      3.66689045542146      2.16119312455166
  H   9.95964415301586      7.13124414818095     -0.39605219222808
  H   3.20488354219163      0.08269080224448      0.17371301959639
