24
Coordinates from ORCA-job 9166optt
  Br  1.37511661632464      0.33892757541371     -0.70075543698573
  C   3.18784120699372      0.00168773510791     -0.38023994675860
  C   3.74483060896309     -1.19599762798488     -0.11433806069238
  C   3.00245938279738     -2.46746799709030      0.12678745324264
  N   1.87655132407497     -2.58821081361652      0.69656489886966
  N   3.66069473725541     -3.64161140240092     -0.27075324393844
  C   4.93933044034053     -3.63371974209995     -0.31405031248593
  C   5.79929886873167     -2.49128362588643     -0.07565663527349
  C   7.29756713221648     -2.68011306645511     -0.03399693325039
  C   7.96195280120194     -2.22299294537396     -1.25599846388409
  C   8.48272928746825     -1.82613168523521     -2.25837489942374
  C   5.20452614969741     -1.27443615576883     -0.05737866140275
  C   5.90643549843965     -0.01451752878423     -0.05792708666670
  C   5.22935342831538      1.11701338007594     -0.26562189110423
  O   3.88299468465835      1.14777093240584     -0.48329791155035
  C   5.83053275907921      2.47488231875860     -0.31328149291257
  O   7.00036130800993      2.66853580504629     -0.14571467856709
  H   1.51139264517559     -1.68992334211017      1.00088870027740
  H   5.42578387576643     -4.57039876955205     -0.58648888664181
  H   7.52204322067749     -3.73734143742867      0.12107067539894
  H   7.72339136988220     -2.14921299066105      0.82158886113739
  H   8.94809670873181     -1.47967393716488     -3.15019368611952
  H   6.97921623255812      0.05245260917483      0.06476763265442
  H   5.11349971264025      3.28976271163004     -0.51159999392263
