22
Coordinates from ORCA-job 9171optt
  Br  1.28189429978750      0.34565218646292      0.85913414169838
  C   3.10195723408850      0.13513072479002      0.37035263220481
  C   3.67990115705598     -1.11180035947825      0.08285609042537
  C   2.97079853505054     -2.41468612709873     -0.12777332493583
  N   1.75452169836424     -2.59190272250990     -0.44078712133492
  N   3.79375107408515     -3.51485491101772     -0.07487525527749
  C   5.12353062742992     -3.51519953443708      0.50457146002436
  C   5.78862199499009     -4.78977560219805      0.27975368764256
  C   6.32899839680243     -5.84200373552762      0.11114300867490
  C   5.87732732281664     -2.33825455471598     -0.12001718700327
  O   6.98316062593114     -2.38804924261960     -0.55588722818314
  C   5.07132982733933     -1.05651517648161     -0.05779906904099
  N   5.77767812684441      0.06377545395097     -0.05434819983563
  C   5.09421344861876      1.18456358296048      0.13033020149494
  N   3.78312586006463      1.25269734858543      0.38445504045961
  C   5.81851482173870      2.42380913659602      0.09197439204813
  C   6.42769424668094      3.45268559776374      0.05866772041812
  H   1.23275581285081     -1.73014902348398     -0.52523629643686
  H   3.32413725337410     -4.40104531245230     -0.18243448247187
  H   5.09610393277512     -3.32573837602301      1.58945189377068
  H   6.81408290862205     -6.77673121645402     -0.04234039453935
  H   6.97490079468896      4.36539186338829      0.02980829019750
