25
Coordinates from ORCA-job 9174optt
  Br  1.07768787912959      0.13909954081352     -0.18382800700195
  C   2.91340574009659     -0.12016847498396      0.06737546260941
  C   3.57825845677582     -1.23010799308837     -0.35339757227575
  C   3.33474299442110     -2.45976204042432     -1.04309208673810
  N   4.43135271734657     -3.13997436264712     -1.15944346944095
  N   5.42903998381846     -2.41821965692771     -0.55625773076014
  C   6.80743754710565     -2.86441209254907     -0.61403646354776
  C   6.91947764926194     -4.31328557327824     -0.14467446134664
  C   8.34158283106798     -4.70263525078110      0.15791846377094
  O   9.24742331953958     -3.92138602735684      0.22493698734574
  C   7.36333360410269     -2.69893090498377     -1.96267600718130
  C   7.81834451465147     -2.59340783191237     -3.06369866346664
  C   4.98402518609119     -1.23666600330576     -0.06162011137884
  N   5.68838542673640     -0.32637087745257      0.54596383498497
  C   5.00924262289735      0.78939794810021      0.96349801674047
  N   5.45743054529132      1.81105930820660      1.56881798954828
  N   3.59743254623457      0.83452331614689      0.69262684375431
  H   2.40513581901501     -2.83851946033756     -1.43742729333543
  H   7.35930287121116     -2.21751381226752      0.07126018649142
  H   6.49726212191537     -4.99583504209742     -0.88450546318829
  H   6.33919646372770     -4.45069421058039      0.77380205435822
  H   8.50939395945511     -5.77968244307322      0.34484749650011
  H   8.22809508949443     -2.48732488604611     -4.03983224753589
  H   6.45540250186347      1.70505291554825      1.72154462287918
  H   3.14260760874940      1.67576391527798      1.02089761821465
