22
Coordinates from ORCA-job 9181optt
  Br  1.06686509599933      0.12403781473932      0.23640976504344
  C   2.94542500350541     -0.02152221915649      0.07745229435498
  C   3.56925146428781     -1.24746966182617     -0.10426753237907
  C   3.08171001328649     -2.65143768537965     -0.21346922196388
  N   1.94742323816330     -3.19238597000110     -0.18272807659994
  N   4.24480425982453     -3.42231249784312     -0.37182234293583
  C   4.21238593916617     -4.85376851975172     -0.53183024099243
  C   3.76922751426784     -5.25249895573828     -1.87563157066504
  N   3.43274534541133     -5.57302978970581     -2.92123397883789
  C   5.40876455254397     -2.67579882300340     -0.38273344152949
  O   6.52553546477999     -3.09566188693350     -0.50155811256313
  C   4.95426405985546     -1.25837046361365     -0.20216171233764
  C   5.69423751886706     -0.10145117426633     -0.12405527314242
  C   4.95693859192496      1.06516482084282      0.05841832996901
  C   5.63781088503634      2.39487715463727      0.17239141542092
  O   6.82817457477204      2.51607018206996      0.12981841771772
  N   3.62719647690837      1.09986912859709      0.15364947207301
  H   1.20028496616010     -2.51458159753993     -0.06395164421492
  H   3.52709836237840     -5.28313324925747      0.19900653475744
  H   5.22137737399276     -5.22939363513329     -0.36193823431306
  H   6.77330094172042     -0.07738560761254     -0.19371548394811
  H   4.94917835714786      3.24618263587604      0.30295063708632
