25
Coordinates from ORCA-job 9182optt
  Br  1.12157629623118     -0.02341861163779      0.06993418855496
  C   2.99760785220077     -0.15945415912644      0.03029841267547
  C   3.67243309765635     -1.32242381451134     -0.00670957246973
  C   3.07265261513774     -2.63564531782005     -0.05497376283697
  N   3.72268166855229     -3.73952986386127     -0.04416755224907
  N   5.08447410513462     -3.64450234953727      0.05417969271762
  C   5.78642641056751     -2.50921119557837      0.05418156548484
  C   7.28337714165628     -2.66778727409774      0.16093629388177
  N   7.92008140163329     -2.58590553214061     -1.13189585861396
  C   7.89344304711483     -3.65805887963862     -1.95135960051866
  O   7.40697201296168     -4.72686307267311     -1.64194060005496
  C   5.13695632187369     -1.29609457707787     -0.02142105201110
  C   5.85548550107900     -0.05298387893741     -0.13353488932583
  O   7.06430187574406      0.06612852989182     -0.29003508771646
  C   5.02505296261730      1.21495780576617     -0.06896894184561
  N   5.51791433995720      2.37943270704901     -0.10143622619290
  N   3.65464839580185      1.04626246494147      0.03944683412787
  H   1.99582709201867     -2.73369611399604     -0.11988500460784
  H   5.57396180798614     -4.52499347931593     -0.03975690060266
  H   7.50605784958318     -3.64414152105142      0.59071317600177
  H   7.68220324223162     -1.88683020278015      0.79999603284060
  H   8.17883391900566     -1.66920689786354     -1.46542764029683
  H   8.36803338724854     -3.48292036107040     -2.92687150927950
  H   6.53055141486861      2.30073450274337     -0.18377007941418
  H   3.11844624113786      1.90115109232357      0.08446808175137
