25
Coordinates from ORCA-job 9184optt
  Br  1.19980796665915      0.17067026294019      0.48433284701940
  C   3.04764613893146     -0.01676935524465      0.27974094936401
  C   3.67853851888018     -1.19183695049515      0.14118169401557
  C   3.19993722314833     -2.60785989746210      0.10080875675146
  N   2.06733483960660     -3.13282059242898      0.28743715761078
  N   4.32695054681604     -3.35890336321785     -0.20170561314573
  C   5.58425177169813     -2.65156447328816     -0.14109024957212
  C   6.40943553523801     -2.78348028692739     -1.41313272383884
  O   7.59785199002933     -2.65028012435014     -1.42393942545183
  C   5.11211651946745     -1.22139946443743     -0.01295223360743
  C   5.80384068661635     -0.08623010519754     -0.05484408133857
  O   5.18673534368605      1.10778924559965      0.07758152027237
  C   3.82473710809023      1.23167245611423      0.27222030527046
  N   3.31227993760861      2.36886570864691      0.42397966429538
  C   4.16275431449485      3.53297774218125      0.39958351115622
  C   3.34877803629595      4.77776873487418      0.68101112268672
  O   3.82142703558569      5.87747232049027      0.69260551619679
  H   1.35548141445386     -2.43820228721955      0.48294128566536
  H   4.27326803631616     -4.35436842535533     -0.05711242807605
  H   6.21183932763504     -2.94620831079908      0.70548217795804
  H   5.82052618030433     -2.97358267013604     -2.33098230353943
  H   6.87147721108988      0.00934361612896     -0.19379768804817
  H   4.65542208045168      3.66037998023993     -0.57120997645277
  H   4.96708563167354      3.47569529739510      1.14208123582160
  H   2.27547660522304      4.59687094194871      0.87877897898680
