25
Coordinates from ORCA-job 9187optt
  Br  1.04835542550394      0.20542819187075     -0.13046363760947
  C   2.91640378982887      0.05865200854852     -0.09007162942447
  C   3.57493911714188     -1.10398675469469     -0.08172030644755
  C   3.21785929390306     -2.54255502898173     -0.10192751461480
  N   2.10418346010888     -3.15551520473159     -0.09394127738621
  N   4.44389535039836     -3.20102851402794     -0.11683416897543
  C   4.52446002174339     -4.62732110010832     -0.03622588354882
  C   5.08840695517173     -5.30341777968980     -1.26056324319390
  O   5.58656506564942     -4.73638719390360     -2.19178237931725
  C   5.52790458366786     -2.29301881131213     -0.09587942006485
  C   6.95007646640846     -2.71060939125238     -0.14856713739578
  C   7.46044951108434     -3.42278775135949      1.08181914082125
  O   6.78590037338741     -3.73603239306766      2.02153470546480
  C   5.01948558939664     -1.05806261344209     -0.06791605801927
  O   5.66852851253127      0.15553546176655     -0.07325299067284
  C   4.86970219212667      1.23793430601343     -0.07007175076979
  N   3.60192795524168      1.27151839145056     -0.07501324142297
  H   1.32444841365984     -2.50794646755655     -0.07205000151610
  H   3.50850708415239     -5.00164846962901      0.11739738925247
  H   5.11472758725615     -4.95056617565338      0.82983025327018
  H   5.03046202177411     -6.40873145240188     -1.23230042305079
  H   7.57966163023985     -1.82937047927637     -0.29967870674189
  H   7.13601862128757     -3.36293946178738     -1.00980016785096
  H   8.54163386896961     -3.65822520063143      1.05988272625147
  H   5.45349710936656      2.15008188385763     -0.06340427703703
