24
Coordinates from ORCA-job 9189optt
  Br  1.02916271964963     -0.01321687726929      0.45167099681844
  C   2.87045054468035     -0.16055538040143      0.19392774799266
  C   3.52751016902504     -1.30745873946304     -0.04119869735111
  C   2.92848925253575     -2.66923800897243     -0.24050183896925
  N   1.84512914128432     -2.92564946285806     -0.84861741410306
  N   3.68768148446493     -3.69286902307129      0.26590013293393
  C   5.07143168396694     -3.56956841020129      0.62775448539179
  C   5.74061471805550     -4.93194367828766      0.54556506698835
  O   5.12102001304094     -5.95125308535853      0.48149912352639
  C   5.77106542046104     -2.49544342217272     -0.20646144086049
  C   5.96402260918587     -2.92671083270692     -1.65687594484219
  O   6.00870910565419     -4.07616906164635     -1.97990299308866
  C   4.98532084179599     -1.21733214393382     -0.10569874244722
  N   5.66013184682361     -0.13635681844577     -0.07951139949617
  O   4.96676898917771      1.04097199011199      0.02357445130948
  C   3.61861547905174      1.10471130806076      0.29541986667216
  N   3.07878906577232      2.20195329401851      0.57700115085213
  H   1.36430743012617     -2.08798704574369     -1.15395692129592
  H   3.37194344101335     -4.62955485940627      0.04336263765871
  H   5.18827159995840     -3.27807722274878      1.68430910197181
  H   6.84209198291006     -4.91802848008088      0.62694795558835
  H   6.77570678580007     -2.29287390075241      0.17896449781997
  H   6.10367609371816     -2.10864022923843     -2.38656761558686
  H   3.76408958184786      2.95529009056784      0.59939579251675
