24
Coordinates from ORCA-job 9198optt
  Br  0.79078752223047      0.03508398059445     -0.31048052389821
  C   2.67840753157135     -0.00517487027502     -0.09491882291352
  C   3.38525291973163      1.18812643259423     -0.05536477423743
  C   2.96497985103314      2.62681509814807     -0.07578634937798
  N   1.85234200756731      3.21831486239838     -0.11427872278621
  N   4.16207785774192      3.34011809035551     -0.02614579700301
  C   5.29281238027611      2.54725682602561      0.03153496719620
  N   6.52000684523553      2.84573236578038      0.08854613255876
  C   4.77451068134261      1.15881888231131      0.01124079320066
  C   5.49473559150008     -0.01687687540969      0.02562062759444
  C   4.77953975191073     -1.19976767595309     -0.01521356984249
  C   3.38119153048574     -1.21356177758014     -0.05786517605271
  C   2.78426325988545     -2.59674954688037     -0.10067902752179
  O   3.30010448759775     -3.47102816877291     -0.75061984651926
  N   1.68285349970023     -2.83071992822434      0.69744281320828
  C   0.98557426087619     -4.03165573988392      0.69021460613827
  O   0.01326958733061     -4.20811655207332      1.36746092069968
  H   1.07585374590178      2.56882354633334     -0.14525488358116
  H   4.15784641730081      4.34721292477646     -0.01799156121053
  H   6.67922884806277      3.85152688598269      0.08935585757447
  H   6.57546823986409      0.00491444218334      0.06100776279623
  H   5.28761409763118     -2.15485110689822     -0.02543831557633
  H   1.29596257140722     -2.09217272117652      1.26821408860240
  H   1.41631651381526     -4.77006937435623      0.00539880095124
