25
Coordinates from ORCA-job 9207optt
  Br  1.52222515396488     -0.59138536813448      0.50977918694245
  C   3.29318329042232     -0.23191316714675     -0.03933188146330
  C   3.88755529925832      0.95698653831604      0.13826729715248
  C   3.37704747756425      2.25664453029767      0.68267068935417
  N   2.24818999226182      2.64909251945645      1.09994741599200
  N   4.46313527867744      3.13006264112521      0.59635491177893
  C   5.53475861738767      2.51474809871721     -0.05249045248532
  N   6.66430776475586      3.26948035862545     -0.34041350124863
  C   7.37635457994000      3.83095372523681      0.82155849950477
  C   7.90212611721426      2.78570558080331      1.71683797962905
  C   8.29980895308267      1.89782292438394      2.41267530939641
  C   8.44660314262540      4.71733285721802      0.35414800116966
  C   9.31994032717266      5.42821552199877     -0.04606209756564
  C   5.26001155735849      1.21898090196235     -0.28902012395821
  S   6.36679755926874     -0.01753224107820     -0.85274836297181
  C   5.24283879833471     -1.32271302701889     -1.07436229984218
  C   3.96138300391118     -1.34703054203876     -0.69468349272799
  H   1.56179946563372      1.90433509968651      1.09556218160842
  H   4.28213381301410      4.11850511058855      0.50889157002573
  H   7.30617790146393      2.77059357093864     -0.94526644949449
  H   6.65346324513403      4.42653708319644      1.38528652008323
  H   8.65362558694638      1.11010806733585      3.03449581787914
  H   10.09897432580640      6.06171180871777     -0.39816656972050
  H   5.69093831063882     -2.18505104918089     -1.54958265530859
  H   3.38062043816184     -2.24019154400703     -0.87834749372979
