23
Coordinates from ORCA-job 9215optt
  Br  2.05489340076413     -2.60046979738888     -1.23209830251337
  C   3.51181754759799     -1.56732457845168     -0.66928272230938
  C   3.78579382057398     -1.26011649564536      0.59817039496076
  C   4.93749137718346     -0.30169416005416      0.75995514230868
  N   5.05101975673138      0.57584035195624      1.65750157249788
  N   5.98158571057781     -0.60415285106208     -0.13204162152060
  C   5.67876661859439     -1.24852779372000     -1.17788729682336
  O   4.36288601249718     -1.23761874854401     -1.66777911735231
  C   6.47807026575156     -2.39353810630153     -1.59331129885232
  C   5.72806463774265     -3.50326451003028     -1.73518810132706
  N   5.93779225098704     -4.76260450402636     -1.15383140642552
  C   4.86240305590792     -4.83625013300277     -0.16228260379345
  C   4.79451730349611     -3.94576302928545      0.82496957034320
  C   3.55079082963158     -3.63272963136638      1.59325546061421
  O   2.76240410143610     -4.42187285166235      2.01899057926291
  C   3.30833391899670     -2.07516219740018      1.75734646301730
  O   2.91080389465166     -1.63424469174365      2.79362701081747
  H   4.23252727731227      0.57822811489027      2.26550800262988
  H   7.46689935080771     -2.42582136024204     -1.15589781864996
  H   4.72413656585416     -3.40776910648598     -2.12802208192309
  H   6.84939618021440     -4.83305708947430     -0.71354507037165
  H   4.05524330502330     -5.52630725948439     -0.37938009219656
  H   5.60236281766647     -3.22577957147461      0.93222333760632
