25
Coordinates from ORCA-job 9216optt
  Br  1.15182162319604      0.14883989387342     -0.28405439193847
  C   3.00970976958732     -0.03912379014050     -0.08207588193498
  C   3.63826829724596     -1.24381861797212      0.05547542820087
  C   2.95748212624579     -2.51210006401418      0.05114488878207
  N   3.54856352001399     -3.64216708043901      0.14058385153799
  N   4.90465175650505     -3.61204866141254      0.26396113797316
  C   5.74249929227365     -2.53971247695295      0.32150333447121
  O   6.93154153660665     -2.69973938079378      0.53799323736834
  C   5.08279791391866     -1.21382768197119      0.13862872612594
  C   5.80345639935742     -0.06279309790236      0.08003975552893
  C   7.31198184493654     -0.01736709052556      0.00795064595464
  N   7.96411256511547     -0.13521568037453      1.29535004725998
  C   8.40442884542866      0.93704834610567      1.98074550417720
  O   8.30520958055163      2.08727853598972      1.60578018249786
  C   5.09740173096262      1.22597247480759      0.08278184145766
  N   5.53659940697999      2.40505898166794      0.21962330756059
  N   3.69976484444574      1.10670171732893     -0.09168625044565
  H   1.88008998942524     -2.55124954775669     -0.03837043577675
  H   5.33412765354446     -4.51579086439473      0.39532289838311
  H   7.62043105403010      0.93149361848060     -0.42677595478379
  H   7.66703617569928     -0.82170330919704     -0.62907906707118
  H   8.04216646778379     -1.06413413060333      1.67999594138577
  H   8.88334372953906      0.66962852345160      2.93450707312326
  H   6.53753156197196      2.44499296430549      0.40484680819517
  H   3.21498231463483      1.99377641843960     -0.14119262803293
