24
Coordinates from ORCA-job 9217optt
  Br  0.94690819107882     -0.21877560013005     -0.00073511761016
  C   2.81714483171819     -0.09738234975822      0.01676436020845
  C   3.51835612380049      1.05125596076450      0.02368704738791
  C   3.19231332340782      2.48921771317470      0.02391214290011
  N   2.11345269784096      3.14177859921630      0.02263538863565
  N   4.43731142302546      3.12827089649032      0.02778807137045
  C   5.53878635476655      2.29799826922685      0.03175842297454
  O   6.68840650457696      2.62172941791375      0.03614441993244
  C   4.94652319607485      0.89628651926730      0.02993820349133
  N   5.62301166330299     -0.18493401169919      0.03272054690633
  C   4.90869228649405     -1.37913051328042      0.03150603751000
  N   3.48780791325907     -1.27142443365181      0.02097351155717
  N   5.50452956928958     -2.49480224539658      0.03922552392251
  C   4.72552304266380     -3.70524896958328      0.03990997070481
  C   5.67619054307491     -4.90237904219087      0.04716012192566
  C   4.93747519912252     -6.16310442002468      0.05109088461899
  N   4.32051572263195     -7.12868852928191      0.05398100448714
  H   1.30210415610157      2.53191907547177      0.02061759806253
  H   4.50968978931231      4.13475051658597      0.02952233215364
  H   2.95147975715954     -2.12616217965233      0.01625564155575
  H   4.08046966492798     -3.77413229165408     -0.84781051063992
  H   4.07415100333719     -3.76791627746684      0.92343497585303
  H   6.31679609069832     -4.85570953925884      0.92790412281183
  H   6.32036095233407     -4.86341656508238     -0.83138470072019
