22
Coordinates from ORCA-job 9218optt
  Br  0.75281549112242     -0.57564178488816     -0.26247952542417
  C   2.62189956169274     -0.43593914973455     -0.08218981005123
  C   3.21486526268635      0.75758671892759     -0.06767056670965
  C   2.61116287606684      2.08302447707863     -0.21527842106636
  N   2.65796830017041      2.81924134704459      0.83049503823419
  N   3.27398891522809      3.98757639091036      0.42694210254906
  C   4.58551143655826      3.78755090804443      0.00154327872878
  O   5.27114157364655      4.74365472429153     -0.25669807292077
  C   5.21309864315177      2.34731302795075     -0.02895430488146
  C   6.59922471801718      2.46668953980072     -0.05873683850293
  C   7.45873609748170      1.37757738408388     -0.00858180822161
  C   6.93769757007593      0.10941198638952      0.07265544977184
  C   5.55439630699337     -0.07760369114201      0.07635588565258
  C   5.14066406473261     -1.50186923624169      0.15042370240554
  O   5.91499446075026     -2.41435812020180      0.26332744813787
  S   3.41834730645796     -1.95925924074240      0.06536957282083
  C   4.66449112232401      1.01088590895698      0.01614466355133
  H   2.67521850923921      2.54005123826391     -1.20730948646668
  H   3.12422864645535      4.82190331929798      0.97850404300870
  H   7.00941343944088      3.46432285424618     -0.11722791037052
  H   8.52856024887467      1.53459370941888     -0.02788095068005
  H   7.56957544883341     -0.76671231175533      0.12224651043472
