21
Coordinates from ORCA-job 9223optt
  Br  0.99614989846424     -0.22222337286184      0.39064583008222
  C   2.88020280671993     -0.14457175724937      0.26358761960477
  C   3.65147438950984     -1.18653665788215     -0.12752339881077
  C   3.10218298675885     -2.47986019767293     -0.62818988480899
  N   2.13654628508081     -2.64987068742671     -1.41732313115069
  N   3.76770998201831     -3.63807095972031     -0.13023910203922
  C   2.98088750458386     -4.77452962832018      0.08891758113412
  O   3.40715981864850     -5.83114578744510      0.46326083878760
  C   5.17870598951695     -3.64963723461337      0.03155257514571
  N   5.90224370952014     -4.58697133010611      0.44424718937169
  C   5.86699441724038     -2.34485398886347     -0.34425868007398
  O   6.98664752127266     -2.32910929897657     -0.75817064572969
  C   5.09039612263520     -1.08349176700932     -0.08069950466190
  C   5.81328393422582      0.01090642532152      0.22570514943950
  C   5.26044801146420      1.29901002488678      0.59969914870356
  O   5.88283204031243      2.29322750004059      0.84252997455266
  S   3.46300966716378      1.39367397479789      0.76178643985299
  H   1.69988006015883     -1.77188034702264     -1.68311101756902
  H   1.92295128137172     -4.57641598118970     -0.10868182205237
  H   5.36173265362155     -5.41622920154050      0.68356166759013
  H   6.89556091971196     -0.04841972714648      0.21170317263169
