22
Coordinates from ORCA-job 9226optt
  Br  0.92701527903207     -0.89300198130039      1.64632305042512
  C   2.48177728840790     -0.28267267913196      0.80005007607314
  C   2.59763353600439      0.96442166180048      0.28128063571684
  C   1.44440059376023      1.87398692944359      0.28792743834045
  N   1.36484409275710      3.14130275114377      0.21986538805432
  N   2.42119933618462      3.97519883630852      0.10276219959548
  C   3.62329674932029      3.85090995331548     -0.55762850272975
  O   4.25828973720087      4.82824484691238     -0.86387510180738
  N   4.09968360489382      2.58618129441076     -0.87675491737574
  C   3.86621026157212      1.34547516837262     -0.37009330192877
  C   4.84201600648329      0.40595379768855     -0.53744170861580
  N   6.04986304991589      0.61295236049035     -1.17164492512176
  C   6.68818061252641     -0.52351637591954     -1.05372931560751
  C   5.93383484876184     -1.52276157386792     -0.32803365666901
  C   4.75257007509165     -0.91380352958578     -0.01475206685114
  C   3.57717340960765     -1.33645886912439      0.73749201808992
  O   3.43778987993319     -2.40787919990656      1.26616446553851
  H   0.48194263085693      1.39527839846127      0.41078909570353
  H   2.14514293522417      4.94474194840370      0.15911303212663
  H   5.00305715335246      2.65006294592710     -1.34370094120495
  H   7.67796026371431     -0.65416724998845     -1.46942099060516
  H   6.24411865539871     -2.52544943385361     -0.08069197114698
