25
Coordinates from ORCA-job 9234optt
  Br  1.36019919100125     -0.94243916358345     -0.07036985136282
  C   3.16243909575309     -0.39508275574168     -0.04084610731492
  C   3.53629271538475      0.90489472757013     -0.24986637576597
  C   4.99048911166032      1.10894963204742     -0.27746939630514
  N   5.74403060051304      0.02232993005959     -0.01534394784215
  N   5.29791841181479     -1.19295476814999      0.21202501239674
  N   4.02830990307082     -1.40128481360424      0.18741232653238
  C   5.27857410050522      2.41376788397542     -0.57547428691142
  C   4.02436311976753      3.06646739551492     -0.72802754370203
  C   3.84031018256572      4.50039949659725     -1.08116969459307
  C   4.34375612298373      5.46474001874654     -0.02461130136173
  O   5.17348528690875      5.20389745724818      0.79783285817566
  C   2.97977960337109      2.17120261073679     -0.51913163829621
  O   1.64843004676431      2.46997411074239     -0.63951511869990
  C   0.93202048043575      2.49927224990749      0.56663366196344
  C   1.12774817533248      3.75143195496262      1.38278734388700
  O   1.84181324629185      4.66492644812695      1.08464288941491
  H   6.75329379169913      0.08212995732365      0.01125654261995
  H   6.24672101434643      2.88136408047223     -0.64612827385489
  H   2.79173054176778      4.71770958093307     -1.27588411260910
  H   4.40050432932657      4.74343927929721     -1.99295613509516
  H   3.90570144790673      6.47797178319605     -0.08688625229342
  H   1.17336939978075      1.64263735964104      1.20826272773177
  H   -0.13142588806285      2.41936623371191      0.32231581105341
  H   0.53714596911086      3.76988931026844      2.32051086223267
