21
Coordinates from ORCA-job 9237optt
  Br  2.60335230965016      0.84346165427864      2.55414700635988
  C   3.81131401374418      0.49599211002746      1.17599741397687
  C   4.19805422057217      1.42819863951865      0.27580979609255
  C   5.20843342008288      1.04545443858839     -0.66969997874475
  N   5.76483788916134     -0.18128274668856     -0.40048747475202
  N   5.33426720134709     -1.05667803283300      0.49235275377818
  N   4.34937645436616     -0.77834710612384      1.22749299929273
  C   5.75041289125122      1.91458951107379     -1.57453062660347
  C   7.19993185411661      2.01972902626027     -1.43423152659208
  O   8.01737832654166      1.13000487438444     -1.48684504532555
  C   7.45672507041613      3.32814005097391     -0.68456166993259
  N   8.14792381067963      4.28675259344224     -1.10544343268993
  C   6.69596124539664      3.22976254561376      0.63569326124128
  N   7.08470558241189      2.55498953694895      1.62337651261236
  S   5.11323331224762      4.10487072451266      0.74788953664026
  C   3.81862089250903      2.87565925164880      0.39971045008423
  O   2.70070229999233      3.27869484879675      0.34241337084308
  H   6.59644509731767     -0.46546184319116     -0.91170010299574
  H   5.21873492333477      2.84122447261769     -1.73184611166346
  H   8.15604061169552      5.07108594564321     -0.44900381377345
  H   7.98854857316523      2.10815950450694      1.43746668215163
