24
Coordinates from ORCA-job 9238optt
  Br  1.66590045492398      0.88512602221342      0.61919187071293
  C   3.37648617124767      0.28979077681995      0.16579404381597
  C   3.74256792574945     -1.01464303716382      0.02506414617025
  C   5.16712409229773     -1.23491877289344     -0.14264294557526
  N   5.90858248104797     -0.07862865763112     -0.29455793168578
  N   5.46167783352575      1.15316743863748     -0.22336140936314
  N   4.24225788052168      1.36240362001425      0.02223168306475
  C   5.72650901889626     -2.45879427500878     -0.12538176444879
  C   4.88142522322983     -3.61091138088638      0.12637075701992
  O   5.31172559314684     -4.71842367361339      0.34237632044484
  N   3.47385260370104     -3.40575870984984      0.08160922727876
  C   2.93268856728674     -2.24632038417965      0.03121147401037
  C   1.42453970419540     -2.26067783880910     -0.09772839563019
  C   0.75770088444450     -2.48406424036846      1.25531133677665
  O   -0.62667655521913     -2.81892074123434      1.08489312702563
  C   -1.46595697797376     -1.81299222708247      0.85802649835953
  O   -1.17011164536511     -0.65582842827432      0.78696879342776
  H   6.90399481029960     -0.13693439271364     -0.45725509874206
  H   6.79271504415301     -2.61207696510932     -0.22120810326247
  H   1.19485419887248     -3.12428066995268     -0.72105891873572
  H   1.03018892866590     -1.36629909658760     -0.57191583485947
  H   0.83756037451969     -1.60599783364388      1.89631306879623
  H   1.20178850133967     -3.34852070416565      1.74333727958482
  H   -2.48439511350724     -2.20249582851720      0.74641077581446
