18
Coordinates from ORCA-job 9241optt
  Br  2.59129690722148     -0.42559665897384      1.88857320747175
  C   3.62202704252586     -0.17629871743521      0.35190697457265
  C   4.43163018769127      0.88682350263431      0.07811863285415
  C   5.25699369687780      0.71927797061183     -1.10510062643986
  N   4.70989570427361     -0.11799238633726     -2.12352248071337
  N   3.92572305797894     -1.03080613006463     -1.84254524316047
  N   3.53760221977715     -1.17959593562071     -0.54374138715763
  N   6.40115407265526      1.19514699013032     -1.41197126482047
  C   7.13168679659638      1.93544054073884     -0.53037613527463
  N   8.39447558032657      2.07375210163821     -0.61705383852659
  C   8.75603396465274      2.92678961775267      0.48528925470269
  O   9.86115537787602      3.26574495130704      0.73749243679225
  N   7.59365329428421      3.33057288366235      1.25175412557511
  C   6.64275476325316      2.74573491840849      0.67056402705514
  O   5.37445134238071      2.95133703001591      1.05890603397161
  C   4.29744863408923      2.13930505043894      0.87000132118071
  O   3.26558996986412      2.47755867129941      1.35143324497278
  H   2.92842738767544     -1.96919440020668     -0.38772828305582
