22
Coordinates from ORCA-job 9245optt
  Br  2.34042911262777      2.42577514462572     -0.09227880795782
  C   3.81050702404779      1.25179687499822      0.01869051450738
  C   5.04292360227921      1.55606777100846      0.48042158396377
  C   6.03355004512059      0.47957629233680      0.23960360057608
  N   5.48408829249135     -0.85295100374042      0.22495220305852
  N   4.31866352971710     -1.06106713130526     -0.12739881248875
  N   3.52858785256059      0.00137539105457     -0.43369169476428
  N   7.28207352599074      0.49678718117757      0.05906917096758
  C   8.13095506325025      1.56958717338541      0.03912618829693
  N   8.43847070872055      2.20121076118576     -1.01967369686895
  C   9.07653791236263      3.41621595995337     -0.93036955260917
  O   10.13684034166110      3.72239900667553     -1.39914047447499
  N   8.26228181384995      4.44982389275359     -0.35897204503683
  C   7.00044482610351      4.31238606833443      0.15811840690903
  N   6.66037927811326      3.25568597816335      0.76059807325073
  C   5.37911401268574      2.88186156760669      1.10568146048643
  N   4.66613030445917      3.55092742149299      1.90696562876320
  H   2.59116923066163     -0.25420517306927     -0.70127313879688
  H   8.62378215045320      1.74138304543243      0.99729319224320
  H   8.55061702567521      5.36830700987687     -0.66173602706894
  H   6.32076524139980      5.15181087557278     -0.00724409130072
  H   3.79368910576879      3.07924589248040      2.13025831834447
