28
Coordinates from ORCA-job 9248optt
  Br  2.08077803057600      1.12976053526362     -0.49251481051082
  C   3.66454816536423      0.55479709661453      0.36838915786835
  C   4.04582060926805      1.09947317500281      1.53653812903036
  C   5.06588015864738      0.39879727447712      2.33366030513967
  N   5.48066216579353      0.65141261953074      3.50451264570666
  N   5.58716003226817     -0.71237691446293      1.67023523735879
  N   5.46676776320595     -0.98897752873787      0.37995195311576
  C   4.52722327344452     -0.40591490722567     -0.28697611714876
  C   4.68463664688165     -0.41682295068848     -1.78366368189342
  O   5.57343542503614      0.62179429803146     -2.17567997124059
  C   5.09599834754065      1.94817036386156     -2.07050170119584
  C   5.43571620839966      2.65612913574386     -0.72148898702068
  C   4.31257234437755      3.55504399071010     -0.22901901997972
  N   3.84439298003898      4.50989456692732     -0.92265128117313
  N   3.78265713764468      3.47416191220339      1.07170131845155
  C   3.58025256814196      2.43711838310283      1.97837511924212
  N   3.07266613590741      2.57408400396195      3.13259116008311
  H   4.97232203433913      1.43178653395710      3.91061096722890
  H   6.33235608796027     -1.19781908686630      2.14900694504897
  H   3.72860971020355     -0.31545526467991     -2.30184120316305
  H   5.16758739484244     -1.34540653208758     -2.07803488893919
  H   4.01954039423644      1.98414243382810     -2.25231472672386
  H   5.58048807425658      2.49127334721994     -2.88138850070938
  H   6.28418081128921      3.32325925016253     -0.88392276519539
  H   5.76601829017215      1.93069325952803      0.01227216113989
  H   4.31771758555367      4.58603151153350     -1.81907892508430
  H   3.22690895052668      4.29983042968758      1.26065112854632
  H   2.82710267408328      3.54211906340066      3.33858035201766
