20
Coordinates from ORCA-job 9252optt
  Br  1.36488078920397      0.31469244689483     -1.70040394890238
  C   2.99861408462674      0.08251895113580     -0.83072878341981
  C   3.40379233524281     -1.09921813246453     -0.28392850694713
  C   2.75028856084403     -2.41873358883077     -0.21407148191445
  N   1.62309332958160     -2.77467609267689     -0.65911461313065
  N   3.69984106041773     -3.19695739935682      0.48116596657317
  N   4.79300909498635     -2.53666241838431      0.81913337353673
  C   4.67733602731541     -1.29975037698362      0.39829536523094
  C   5.58823800316928     -0.19816363847004      0.51553890634871
  N   6.78784752142946      0.03420589692267      1.04887005033481
  C   7.06157717589660      1.35621719893257      0.78988570203504
  C   6.03493238458869      1.98620528915992      0.08381721756880
  C   5.58789872646000      3.23412003754809     -0.49521092341274
  O   6.02185115838625      4.32729352191081     -0.59685736840275
  S   3.80880013771044      2.83855668563504     -1.24929814221952
  C   3.90580044222787      1.20184039708933     -0.72441170287580
  C   5.08896195448532      0.97239020747270     -0.08647262443098
  H   1.42073122267997     -3.75610845321779     -0.46855756285479
  H   3.61617365485342     -4.17004641464745      0.72636293724920
  H   7.99233233589400      1.78027588233047      1.13598613963362
