29
Coordinates from ORCA-job 9253optt
  Br  2.79866290399102     -0.43099206760416     -2.91605539627116
  C   3.70300281970427     -0.25761827981252     -1.29175792665513
  C   3.75477061604910     -1.18909515380617     -0.34077323831024
  C   3.19975029151355     -2.54735827489980     -0.15625177669323
  N   2.46751801386546     -3.31927050422537     -0.85279875626846
  N   3.68796790410543     -2.86709683346390      1.09508360851286
  N   4.46077886485165     -1.90391329117249      1.70074174262375
  C   4.50935180158307     -0.91923009488638      0.87308683639553
  C   5.17516229678606      0.34848784762707      0.97595623147450
  C   5.05516130202441      1.21588808892734     -0.03687948989488
  C   5.63154648506922      2.58855661419362     -0.10247850221308
  C   4.59526799916464      3.68159364861089      0.15605386674884
  C   3.99858901624035      3.67364698078616      1.56352853840391
  C   3.49381115701356      5.10703876337118      1.70400550842373
  O   4.32839304804838      5.91034226752679      0.87066394595578
  C   5.19211730569526      5.08613008374159      0.10931917503030
  O   4.31792785198661      0.93026015465739     -1.17372327510480
  H   2.21860702440869     -2.89481133021083     -1.73936415828581
  H   3.51678011032156     -3.73612700769270      1.56799026084122
  H   5.76227447594460      0.61163430765020      1.84382826377685
  H   6.08860975906577      2.73197806681821     -1.08521618402916
  H   6.42119588317518      2.66282389667282      0.64789828256568
  H   3.79149749752347      3.60609030674972     -0.58138497063724
  H   4.78892349622538      3.47180884964792      2.29274944995506
  H   3.21264977409406      2.93281561593566      1.70293286780816
  H   3.55151711791986      5.47820331863454      2.72774036288253
  H   2.46009025516348      5.19928653774235      1.35962893904202
  H   6.19531597750523      5.08194527425078      0.55625304240374
  H   5.26575895096058      5.49098221423005     -0.90077724848126
