26
Coordinates from ORCA-job 9254optt
  Br  0.88586651507549     -0.36532765731061     -0.33751301837562
  C   2.74585733321853     -0.17345315212396     -0.13665829969350
  C   3.58550570275235     -1.20473290243444     -0.00878207998580
  C   3.38468655530731     -2.68070180716058      0.01759299105257
  N   2.38330764956251     -3.45838452198450     -0.05849984457480
  N   4.68007019843802     -3.13634896497843      0.16082644333259
  N   5.63752508979551     -2.17038897478342      0.23850133919095
  C   5.03034845454481     -1.03596382861486      0.13859675730206
  C   5.66309304461535      0.25296731702801      0.16320177912626
  C   4.98223718221947      1.40039500366713      0.04946530863148
  C   5.62544421147433      2.75637150301155      0.10559809236103
  C   5.32417723197542      3.49952704681838      1.40875817434080
  C   5.99218438669382      2.86449722322366      2.64195447751494
  N   7.14376329162006      3.73243873040615      2.91896843958518
  C   7.00381718183421      4.73871277937062      2.17819578993714
  O   5.94941371514937      4.79506465412538      1.32798998073822
  S   3.23698817638006      1.49194688315773     -0.15244311344521
  H   1.51365276244089     -2.95022141524405     -0.16130894547942
  H   4.93602921653154     -4.10424715125468      0.24284072500834
  H   6.74070951282387      0.28438356479783      0.27690182556937
  H   5.29525173852372      3.37453340742225     -0.73271750822487
  H   6.70761235047789      2.63309186908314      0.02237415949373
  H   4.25321359090633      3.65561569678656      1.53060637103227
  H   6.31850164156797      1.84151564719010      2.45228013838791
  H   5.33941059568538      2.84910529000920      3.51581607095348
  H   7.65533267038568      5.60260375979182      2.15145394622087
