24
Coordinates from ORCA-job 9255optt
  Br  1.24366964891012     -0.40137850879975      0.01116407799153
  C   3.10218422127034     -0.14799576602818      0.01736535370472
  C   3.70016008564340      1.05155923037977     -0.00273624405181
  C   3.24773664377308      2.45561071809133     -0.02407977004597
  N   2.11278221227042      3.03710374190386     -0.01644423691386
  N   4.45244002187244      3.12456983506379     -0.05551174140831
  N   5.58296232712551      2.33799655334449     -0.05323519027735
  C   5.15445398243225      1.12127009158771     -0.02186468908607
  C   5.90935482459467     -0.09682245205577     -0.01753982303019
  C   5.22158988746082     -1.25734490895477      0.02571877815361
  N   3.83930427782087     -1.29666094905416      0.04945365030637
  N   5.83293439025673     -2.52147376329424      0.06907048328538
  C   7.19713946522443     -2.75594341006498      0.33059241451543
  N   7.56382325516618     -3.96308097239218      0.28857015713188
  C   6.38299997480600     -4.74674345085085     -0.03474788155256
  C   5.23719241211294     -3.76179823351138     -0.14754472960619
  O   4.06930837713424     -3.97061596939092     -0.36651094383828
  H   1.35363330650797      2.36665296149605      0.00682813497644
  H   4.54388712052899      4.12440497561813     -0.06921458152444
  H   6.98647120970795     -0.06807490861505     -0.05936469337509
  H   3.39078681507258     -2.20412274192752     -0.03788449162846
  H   7.84425052021324     -1.92352040414034      0.56878522702108
  H   6.17810413572535     -5.48874232357187      0.73834965191874
  H   6.51183088436939     -5.28084934483312     -0.97821891266659
