24
Coordinates from ORCA-job 9257optt
  Br  0.98616750371987      0.00311971668760      0.44903945945205
  C   2.85393063575817      0.00346870676090      0.20212284174050
  C   3.58222465247983     -1.10014056064973      0.03544244264848
  C   3.23295079081596     -2.54772395100154      0.00166275750638
  N   2.16174978709425     -3.21863141098437      0.13612565908506
  N   4.46299843742789     -3.12430084471863     -0.22583668030519
  N   5.51134888236672     -2.25493617888787     -0.32851536880578
  C   5.02859741841167     -1.06658586580625     -0.17706058256901
  C   5.79244324263030      0.14679514339844     -0.23184215537008
  C   5.22434999143321      1.35157777456378     -0.06960458921112
  S   3.49578135327378      1.61451188972878      0.23843593225529
  N   5.92601045396402      2.56157417867137     -0.08113449682088
  C   5.36110289950116      3.83039132015413     -0.29965424246019
  C   6.32533400804641      4.74341524969006     -0.15895469259873
  N   7.49704320840186      4.07019108059931      0.15212096944901
  C   7.29663197228258      2.70392984382724      0.19078725923638
  N   8.10653101655634      1.74669749439395      0.41291652620016
  H   1.35960149924361     -2.62236053555342      0.29703660182440
  H   4.62275448589814     -4.11236052403827     -0.30655419584890
  H   6.85842739446518      0.08638523346135     -0.39282244849425
  H   4.32790458687607      3.95908525389272     -0.56276277026376
  H   6.28244800167351      5.81225006722199     -0.25940693789741
  H   8.40417878420254      4.48504460287368      0.25914739221568
  H   9.03848899347686      2.08660231571478      0.62331131903192
