21
Coordinates from ORCA-job 9259optt
  Br  1.07543537189918     -0.17461319286382      0.21393157940285
  C   2.94474755257492     -0.09231641328772      0.05578594770107
  C   3.59097505149327      1.09351468040223     -0.02152522779325
  C   3.25418851886346      2.52738817257214     -0.10697194049748
  N   2.17745479105078      3.20024699603651     -0.11141482114184
  N   4.51464153161262      3.10729578670248     -0.21505024970754
  N   5.56359852424011      2.22042540048022     -0.27790634015210
  C   5.01847056755096      1.06956829145588     -0.13468339862279
  N   5.67809801892525     -0.16537546121694     -0.07992501968465
  C   7.03990807789700     -0.28800738941580     -0.06000622906621
  C   7.91641035988237      0.94723348541795      0.13392613902125
  O   8.88569388200020      1.10869856647550     -0.53663493883158
  N   7.63035543556956     -1.43342456371443     -0.11638996142570
  C   6.80536758329346     -2.51909272455067     -0.18459414054638
  N   5.51373535974142     -2.51836318255769     -0.13567288971844
  C   4.87288484728549     -1.32172389318713     -0.06329822027707
  N   3.57661454639257     -1.28571622916248      0.01218640037832
  H   1.36510426508882      2.60174031897079     -0.00783414894717
  H   4.67510585881463      4.06888184663635     -0.45922675432679
  H   7.62930226025856      1.60792042828312      0.96337180794339
  H   7.30290759556532     -3.47828092347648     -0.27406759370789
