23
Coordinates from ORCA-job 9260optt
  Br  0.86662573953122     -0.21632902336484      0.27269400634425
  C   2.74249167951376     -0.13570854618311      0.13320877515204
  C   3.47376251621890     -1.26971732629732      0.08342761703198
  C   3.20254447477202     -2.72677228893983      0.13601248081487
  N   2.15258274492731     -3.43702887869419      0.27153818126239
  N   4.46592204595860     -3.25588322475689     -0.00302823979551
  N   5.49974982331925     -2.33773331260274     -0.10603356394907
  C   4.91115584648874     -1.19872238615306     -0.06006057192295
  N   5.50313302402131      0.04057709987349     -0.13811880564787
  C   4.75119884491959      1.16281888281615     -0.07309750402285
  C   3.39149464623210      1.15402459691892      0.05445526415285
  C   2.68977065285073      2.44746281660638      0.07258482345855
  C   2.69475812437972      3.39342318906640     -0.91401975336688
  C   1.99158547451756      4.57447085093997     -0.55900305778083
  C   1.46541715721445      4.50356267204814      0.69450826863403
  S   1.82511172383325      3.01541917563610      1.44957387162867
  H   1.32397501566008     -2.86144732667056      0.35407710199415
  H   4.67981474414099     -4.23502831569248      0.04619942599738
  H   6.50579262354008      0.09612397967689     -0.23031550720412
  H   5.29154030837666      2.09785594299377     -0.12205596061304
  H   3.17520481637297      3.23192726108246     -1.86915014174821
  H   1.87528388010698      5.42928280182007     -1.20867654076630
  H   0.87708409310370      5.24442135987627      1.21127983034647
