27
Coordinates from ORCA-job 9262optt
  Br  1.08588206856972     -0.39918112191617      0.05745624632404
  C   2.94401520843363     -0.15258248133125      0.06042852317883
  C   3.56336887240062      1.02878541666622      0.05285257069344
  C   3.17564917390687      2.44953261152902      0.04079112792509
  N   2.06616590009639      3.07687839785439      0.03698744464665
  N   4.41155699095177      3.06009314050946      0.03392761546042
  N   5.50446527277167      2.22148774801366      0.04277064891133
  C   5.02305333400365      1.02942177781384      0.05412613864873
  N   5.75690590818868     -0.13984944166560      0.06613081336933
  C   5.09535050974180     -1.23369889790714      0.07487669674554
  C   5.77370384238661     -2.57345224480404      0.08480313846348
  C   7.28945830188095     -2.46113175342598      0.13693813204329
  C   7.98420141653431     -3.80365892456694      0.05667414252423
  O   7.68754787030626     -4.61927479813657      1.20682875140714
  C   6.73302925188862     -5.53661295574148      1.07857207752213
  O   6.05211437600739     -5.71510067615913      0.11088259188129
  N   3.70489513886404     -1.29405640114761      0.07230700679779
  H   1.28014235300661      2.43666530820732      0.04360326872411
  H   4.55328564479148      4.05408837215171      0.02662473274903
  H   5.46175633803808     -3.13481982407822     -0.80200082658528
  H   5.39957207145020     -3.14014363321454      0.94330135470281
  H   7.59069845557136     -1.94043403845623      1.04661710839216
  H   7.63505633750958     -1.84719613725336     -0.69654000206891
  H   9.06401964522673     -3.67357527290635      0.07736785502556
  H   7.70020967311841     -4.35044318164542     -0.84210935383686
  H   6.65805831493090     -6.11709885402907      2.00576385989186
  H   3.24983772942360     -2.19364213436050      0.07101833646278
