21
Coordinates from ORCA-job 9267optt
  Br  0.96261146375990     -0.30447920413019     -0.01686434974849
  C   2.81900052521711     -0.05801481136206      0.04174054382527
  C   3.39624523269119      1.15341431385066      0.06333690787946
  C   2.96054887116094      2.56275344754702      0.05889931751472
  N   1.82050547584684      3.12593524243663      0.04019549821080
  N   4.17079147666730      3.24853621990566      0.08432924815406
  N   5.29618257100725      2.42667020022105      0.10857379383849
  C   4.83775629654952      1.23813104021208      0.09742129166834
  O   5.62239506511151      0.13948676784781      0.11396273526558
  C   5.00265305797126     -1.05678634810073      0.09865827555556
  C   3.67118100552221     -1.22147733702429      0.06328535964766
  C   4.35410607435601      4.62034277960423      0.08779850636290
  C   3.42468773581210      5.62227327071315      0.07983007831364
  N   3.95677225902031      6.88560480925206      0.08380847634341
  C   5.24619172139532      6.85152779254475      0.09443110237371
  S   5.94700971156358      5.27586837917003      0.10083839372166
  H   1.07438698187932      2.43915001509929      0.02437902113058
  H   5.71095554770882     -1.87117915202304      0.11880979939605
  H   3.25389832821010     -2.21583914405218      0.05241042803150
  H   2.36000486548527      5.46947836509726      0.07054265022565
  H   5.87711573306410      7.72860335319080      0.09961292228945
