23
Coordinates from ORCA-job 9268optt
  Br  0.88568757703732     -0.20326866877300     -0.43729180311290
  C   2.73809699744244     -0.06588595295205     -0.20759177603044
  C   3.53778630006661     -1.13128774788083     -0.08595124901036
  C   3.44027406093095     -2.60697378373686     -0.08279467570870
  N   2.47369468978431     -3.42718095099080     -0.15678424567053
  N   4.76963874813891     -2.97747984060526      0.02442634737248
  N   5.66487612557600     -1.92816395661968      0.17956979015510
  C   4.94615771751482     -0.88368545088844      0.09399198931066
  O   5.41841860808835      0.39023183627022      0.13365528286378
  C   4.50277986017688      1.36987872089470     -0.00567862164084
  C   5.12719402645467      2.72737916379654      0.03581473256618
  C   5.56331253267789      3.06325192965173      1.42206886921904
  N   5.28925565809381      2.44541747139919      2.51401184477794
  C   5.92778610113446      3.18554452301934      3.49990825429278
  C   6.55744417790113      4.22482259417438      2.92219742178954
  O   6.32954957032141      4.15659908674925      1.57995000041284
  N   3.24720549140337      1.21796959401991     -0.17503287028163
  H   1.58644253150732     -2.94187828731795     -0.24259296605579
  H   5.07924104590892     -3.90731983259836      0.24357551042165
  H   4.39533580750446      3.45195498095217     -0.31791275445582
  H   5.99397785657565      2.74878990838515     -0.62818895223742
  H   5.88549796502451      2.90995334075672      4.53898316469448
  H   7.16234655073571      5.04033132229391      3.27366670632795
