22
Coordinates from ORCA-job 9270optt
  Br  0.97898033622405      0.22541160128141     -0.03126179187114
  C   2.84170145370523      0.07335992811675      0.01001234831723
  C   3.48865421130072     -1.09697901743290      0.05567509554908
  C   3.17571140181091     -2.54375318138871      0.09002830962544
  N   2.09702577713335     -3.21135897808143      0.05644817022674
  N   4.43848651125436     -3.10350932528472      0.17722567304091
  N   5.48872960052940     -2.20272624317674      0.11955488108338
  C   4.93176559158125     -1.06312624345447      0.06966248942833
  O   5.59488413793679      0.12701188039257      0.03648527148988
  C   4.82140590933150      1.21644709216655      0.00055544459200
  N   3.54369928932438      1.26558945033995     -0.01132891076959
  C   5.58658593809140      2.48019865853660     -0.02702975020136
  N   6.85355742072058      2.55426632464137     -0.05472374906387
  C   7.16052518703325      3.97927948426839     -0.07945089919269
  C   5.82074524489890      4.71258073309793     -0.06235191904604
  O   5.58616375395225      5.88691902263652     -0.07546951766306
  N   4.89640856113338      3.67835853003573     -0.02644396219318
  H   1.28571142941521     -2.60406530162463      0.00267690761325
  H   4.63689674327838     -4.08205821999253      0.06796587973754
  H   7.73051587235699      4.23707476308106     -0.97368921712146
  H   7.76414556630612      4.25898701305271      0.78577202443267
  H   3.89270006268155      3.77109202878854     -0.01431277801407
