20
Coordinates from ORCA-job 9273optt
  Br  1.11817354161020     -0.12824359257974      0.02818964728396
  C   2.99159846745157      0.04501986252802      0.04593432162211
  C   3.59736748045102      1.24847159520420      0.05140089031059
  C   3.08933860544182      2.63990032647600      0.04885737088332
  N   1.94334795089872      3.15982001888408      0.04555933209193
  N   4.28752357299406      3.40511108465337      0.05301575979430
  N   5.43211767257748      2.62600947769315      0.06000452715334
  C   5.03922610108392      1.40664568238366      0.05974565409350
  S   6.17074861734921      0.08900374772986      0.06799618543831
  C   5.07204189219186     -1.26080653232706      0.06222872774466
  C   3.72101453971910     -1.19109348764079      0.05221941000960
  C   5.74963506184230     -2.51185101771576      0.06790387160512
  C   6.36060259160951     -3.54264678747016      0.07317744162446
  C   4.46447659447115      4.77473733231797      0.04988082467285
  O   5.53837529720740      5.30309150688548      0.05211975830714
  C   3.24515865650880      5.60125976655454      0.04304387993103
  N   2.41618919700618      6.39018602877789      0.03741550494954
  H   1.20229024795125      2.46831730619449      0.04336986632408
  H   3.16279626618697     -2.11646649761605      0.04931287273195
  H   6.89897764544746     -4.46146582093317      0.07762415342821
