23
Coordinates from ORCA-job 9275optt
  Br  1.35413308959221      0.12352726431072     -1.50019149747516
  C   2.89065988297081      0.19423220234021     -0.40658739257604
  C   3.47999099815339      1.36610454311119     -0.10865153811167
  C   3.19820359365242      2.78536181505020     -0.44742852531798
  N   2.30350836984994      3.39059736193046     -1.12022659422484
  N   4.22637172134845      3.44548618842515      0.19235102043834
  N   5.09253313316292      2.64456194544187      0.88732795972460
  C   4.67212011927016      1.44315332050901      0.71919245414636
  S   5.48346267580269      0.06812414560618      1.41394393207625
  C   4.45326527602984     -1.21411415093759      0.82797687597367
  O   4.99025159876749     -2.36498096213645      1.28775733263449
  C   4.46637238551778     -3.60850782269484      1.12332830067727
  N   3.22140783525890     -3.87038050547386      0.79496897103458
  N   3.16464539591368     -5.20894976983416      0.80898466020529
  C   4.33610179895074     -5.78470886456414      1.13923295602103
  C   5.22985629906362     -4.76734986650329      1.35645382787554
  C   3.35379445078091     -1.08378350370574      0.05775250990435
  H   1.63169405154967      2.74626703154035     -1.51788120296334
  H   4.35136568044911      4.44144070450994      0.20234255242963
  H   2.29608809731108     -5.65857920019961      0.57824754539077
  H   4.44587491614342     -6.85423788352055      1.19445254857407
  H   6.26453998779137     -4.82858204056357      1.64001199972199
  H   2.79875864266933     -1.96568195264144     -0.21235869615923
