21
Coordinates from ORCA-job 9276optt
  Br  1.31335424110812      0.86103721946025     -0.03133959931988
  C   3.10922011664559      0.29641604379572     -0.03729821384307
  C   3.52448270115315     -1.00250966431700     -0.05638574751677
  C   2.76395610069782     -2.23863160908278     -0.17388297465887
  N   3.34904992340748     -3.32831820510761     -0.56856435002561
  N   4.65609036674517     -3.29973027890923     -0.81626809553219
  N   5.48462497326620     -2.35526401991131     -0.47965981305935
  C   4.94689134077349     -1.26153287382521     -0.04442049734276
  S   5.95984736036519      0.01350954930480      0.59590846845011
  O   7.28412534120726     -0.08304405778521      0.09352934689613
  O   5.68371090754238      0.12077036956874      1.99344947535083
  N   5.19888513386132      1.34933028345331     -0.17040336405411
  N   3.96039473813344      1.36157368332417     -0.28784467774859
  C   1.32323809083636     -2.35080377585474      0.15617620243173
  C   0.36670888545924     -2.57479305165099     -0.96002098575625
  N   0.65264977542165     -3.62225359324795      0.00285418061514
  H   5.06784618901529     -4.17305897695061     -1.10924365276090
  H   1.00735776611502     -1.75827954484083      1.00357310039231
  H   0.78970757310190     -2.65690980639859     -1.95434539165432
  H   -0.61748567359925     -2.13018234681760     -0.89653091765529
  H   1.28834414874316     -4.31232534420731     -0.38528249320829
