21
Coordinates from ORCA-job 9277optt
  Br  1.28349709461432      0.29620108327422      0.38063880160721
  C   3.12732170485181      0.04661562524311      0.18348475395004
  C   3.76968900460170     -1.14712457305276      0.04528055379946
  C   3.06963875422051     -2.45831915618260     -0.11272060850079
  N   1.88922476937797     -2.72632932774221     -0.47038850452847
  N   3.87838236393753     -3.56068254481354      0.16354378940575
  N   5.19059380883443     -3.59900970226101      0.22967990475631
  C   5.85307996062418     -2.49750138772115      0.13019558287439
  C   7.27156748753650     -2.68266961634739      0.26388375554583
  N   8.40399914371858     -2.82529273531045      0.37663978600100
  C   5.22286281492446     -1.18478444346856      0.00772584877916
  C   5.89551944096396      0.01077113771990     -0.05132117373483
  N   5.21246730741406      1.17360377903057      0.02742689938685
  C   3.85558378215218      1.32731191070033      0.21974047375415
  O   3.35518787765736      2.41572135733518      0.36234423394600
  C   7.36316527935294      0.24799305939974     -0.27022487780192
  O   7.78580256966681      1.37291477972886     -0.24731337098480
  H   1.31951462632098     -1.90769929354047     -0.63738174958469
  H   3.41636258855234     -4.45849469032029      0.13319366594855
  H   5.76796759935070      2.02539645425909     -0.01857822491167
  H   8.00757202132663     -0.60462171593055     -0.48884953970755
