22
Coordinates from ORCA-job 9279optt
  Br  1.16506253277334     -0.40809689476231     -0.01708400562634
  C   2.98744603176872      0.01865727262497     -0.01628263995714
  C   3.53312666398412      1.25985280699732     -0.01637050510247
  C   2.79761552117601      2.53504549305122     -0.01691113353487
  N   1.57142665537320      2.83977268549298     -0.01753868078836
  N   3.67512528707297      3.62712063836039     -0.01661480693219
  N   4.99032938608221      3.63261301478409     -0.01629754634931
  N   5.64034652139007      2.55971312478203     -0.01597491064531
  C   4.98686958551168      1.32515382470442     -0.01585744729659
  C   5.76078907488563      0.19317647610417     -0.01516688804375
  C   7.25875770316144      0.12348259692514     -0.01468903909552
  N   8.09171286718116      1.09025977599644     -0.01563163739718
  C   7.78336164043893     -1.24170345408323     -0.01307460034542
  C   6.98379984954836     -2.31395635275864     -0.01259906557924
  N   5.59354859328613     -2.24865826090219     -0.01351806155936
  C   5.08876357119780     -1.08858500653073     -0.01466266953838
  O   3.69753627665362     -1.08567756203692     -0.01557663995024
  H   0.95177382689116      2.04131544972361     -0.01773130898841
  H   3.24669047738319      4.54242686593454     -0.01691929869752
  H   7.62224876930104      1.99109546247983     -0.01669877543889
  H   8.85974265309972     -1.33725427389614     -0.01237563115041
  H   7.38392651183946     -3.31875368299099     -0.01142470798313
