25
Coordinates from ORCA-job 9283optt
  Br  8.14993412440457      0.05982573773346     -2.73126873789844
  C   6.65006750828326     -0.70529939408021     -1.93166828097321
  C   5.43846356786805     -0.15038944477100     -1.83259809470807
  C   4.34028721379880     -0.80982714933469     -1.13587833107330
  N   4.42395592184113     -1.86635008148097     -0.41937412301562
  N   5.65103982869560     -2.44534062453131     -0.34134496784924
  S   6.79341765659370     -2.41515111426855     -1.54221361691256
  O   6.36595217770664     -3.12523458941615     -2.70417414712554
  O   8.03619610565523     -2.75485277530613     -0.93326991026855
  C   3.12475080804691      0.04160222187676     -1.21223288765727
  C   3.27919899793650      1.36612847190384     -0.51352766166138
  C   3.51176546716260      1.27723354290349     -1.98447511550654
  C   4.95279425822824      1.14821421022427     -2.44970750386097
  C   5.10587180296668      1.19158781387992     -3.99763515693779
  N   5.81950617990976      2.43701278028753     -4.26798314792914
  C   6.12854740792978      2.91553995887815     -3.14807245951944
  O   5.74930978220049      2.26606628015445     -2.01917816129117
  H   5.69592238406460     -3.25849683042622      0.25901878128897
  H   2.15238511297710     -0.41885054551515     -1.29333274574452
  H   4.13509313122923      1.50603474664779      0.13344912844586
  H   2.37239544219139      1.85617624868802     -0.18926961673545
  H   2.81361048925784      1.75484026695481     -2.65723152458532
  H   4.13575406988493      1.18824618172655     -4.49428826051198
  H   5.68371881870836      0.34774665826639     -4.37805109730508
  H   6.69006174245853      3.82453742900494     -2.97769236066422
