21
Coordinates from ORCA-job 9289optt
  Br  7.14601249925346      0.37314249320041     -2.73571781362034
  C   6.64314024454452      0.78552419375606     -0.98605274530667
  C   6.25444051749152     -0.15767737782190     -0.10110548808847
  C   5.78074504856180      0.28374581035287      1.20067341140049
  N   6.03120532601332      1.42816163220905      1.69328670667465
  O   6.87865855564919      2.21758360916466      0.94785145231918
  C   7.32887419305878      1.85850701928696     -0.28626966391069
  N   8.47710691067591      2.24027975456488     -0.67311142628148
  C   9.53168679520675      2.11010224094049      0.22818756035713
  C   10.55608453803640      3.19068289951237      0.29334540859522
  O   11.44609797938876      3.21810256951649      1.09614414632986
  C   9.74480109078107      0.95704932593661      0.87827389649725
  O   8.75563181003728     -0.03310642921995      0.81719377648460
  C   8.92047085111104     -1.12606085853944      0.05166709991563
  O   9.94331235713535     -1.47865793150206     -0.44417949798797
  C   7.63878213027550     -1.94446132989602     -0.16072345609469
  N   6.44650734151319     -1.53033755823343     -0.27556972624267
  H   5.17179366475536     -0.37549343052822      1.80697352016447
  H   10.42433572584454      3.98023548615589     -0.46682085035510
  H   10.61668051516223      0.74557714802250      1.47753927610731
  H   7.84063190550392     -3.00189926687822     -0.31058558695771
