22
Coordinates from ORCA-job 9292optt
  Br  9.85435585562743      2.02834542672506     -1.39363671075226
  C   9.34043476789297      0.77134483323589     -0.10574600959529
  C   8.27943260287474     -0.13799977222073     -0.29544491837230
  C   7.67947459218632     -0.53827712260602      0.97003912578513
  N   8.27203847345382     -0.48049312041882      2.10140451872748
  O   9.58406289836487     -0.08566137413267      2.08154586840707
  C   10.11373397825412      0.51304906730870      1.01026503743605
  N   11.44578226305038      0.70260917379433      1.12959624558200
  C   12.13513152290444      0.59317561405524      0.08167598094883
  N   12.83928723434633      0.51943133752983     -0.85033998764506
  S   12.30677295735706     -1.08888322261154     -3.66099877183140
  C   10.67437247282989     -1.02800081948285     -3.38077923663437
  N   10.07525311277857     -0.91557022177115     -2.19326588988515
  C   8.75248458440073     -0.76735761809904     -2.40870402252751
  N   8.41641978713208     -0.85892435702118     -3.70050759299946
  C   9.62085298355575     -1.05022730509567     -4.48280359803413
  N   7.84085398239800     -0.63115248554178     -1.42574931918108
  H   6.66878477767336     -0.92705465490972      0.99075700850162
  H   12.93426232214421     -0.06423434667275     -1.70356169206423
  H   7.47414735339944     -0.77787983199692     -4.04063573029971
  H   9.78303789020104     -0.24549087545968     -5.19995450987970
  H   9.63202358717429     -2.00474832460850     -5.01215579568651
