24
Coordinates from ORCA-job 9295optt
  Br  1.08091874107200     -0.03472799258053      0.01681332207700
  C   2.93361803492612     -0.10802212125535     -0.16344401347172
  C   3.72161944541828      0.97048951085945     -0.30269584278605
  C   5.15403653863608      0.71874370521559     -0.35279728191223
  N   5.67721425198606     -0.44297009624201     -0.43233394825746
  O   4.85646391511707     -1.53024208256768     -0.40774823644592
  C   3.50894475368120     -1.46601874892162     -0.17477507152599
  O   2.90231245140733     -2.48098647137174     -0.04405213260251
  C   6.19644112077473      1.82499504619202     -0.23790046640087
  O   6.73711763598153      1.78519081587852      1.06865642840682
  C   6.63529883291219      3.08527692033925      1.63002510483852
  C   5.43893269029762      3.64954047079372      0.88406548589389
  C   4.12302819774908      3.14638936140085      1.47358126417080
  O   3.09738738844809      3.22308055416627      0.50198965493784
  C   3.11397406294630      2.33309050861636     -0.52137393940907
  N   2.55429774852141      2.54129242292086     -1.62125756124173
  O   5.63374187033609      3.09599531345118     -0.41187761397079
  H   6.97666156849181      1.67387535858772     -0.98507590343859
  H   7.53839797213942      3.66790836926753      1.43617856407682
  H   6.48063186825640      2.98306251238497      2.70371885186126
  H   5.43633953542262      4.73178314012392      0.77416771484090
  H   3.80880574132218      3.77437909104607      2.30525742566074
  H   4.23395355188292      2.12136596108869      1.84195528128237
  H   2.16386208227345      3.48250845060595     -1.66107708658403
