25
Coordinates from ORCA-job 9300optt
  Br  1.48107416200237     -0.17074115089977     -1.23542006243020
  C   3.18493173413841      0.03079961662052     -0.50400710323064
  C   4.05359156743956     -1.00214123904315     -0.41879092574976
  C   4.05399956584662     -2.40742304447802     -0.76994662295096
  N   5.16878322393452     -2.97081709785880     -0.47122757997120
  O   6.01433192260533     -2.03314414744229      0.09979759112588
  C   5.34932648758910     -0.84017878003124      0.13054742085776
  C   5.77245152838607      0.34985078919544      0.59820263987639
  C   7.11573400030290      0.60059991490774      1.21419792136304
  C   7.77402694633054      1.81370793747374      0.57804697044711
  O   7.30315222608970      2.92106071405251      0.71595148773347
  N   8.89883713457370      1.56847024135081     -0.16257293078328
  C   9.60281652832698      2.57847525953271     -0.83063213488318
  N   10.63432292843620      2.42681670039867     -1.53469166377696
  N   4.87978397663776      1.38575940547274      0.51202542648548
  C   3.58282656756582      1.35549678360086     -0.02578141442637
  N   2.80589289094121      2.36366069995094     -0.10398943304679
  H   3.26550371884215     -2.98367455815529     -1.22807997381031
  H   7.71729193604309     -0.30223477941436      1.12644285753722
  H   6.99609076961025      0.83495059435436      2.27523202866037
  H   9.22239239064502      0.61725643193417     -0.25583177978403
  H   9.16104642457835      3.55897227476428     -0.68258514322204
  H   10.94034711052083      1.45459527062166     -1.59102116510807
  H   5.23317734609120      2.29698631624079      0.78239333071527
  H   3.22526691252220      3.21089584685097      0.26974025837180
