22
Coordinates from ORCA-job 9304optt
  Br  5.94703281824955     -2.21903053365567      1.91935692417345
  C   5.43827406078355     -0.89846288925298      0.69596085304630
  C   4.32684595757459     -1.06399304061194     -0.03203216774195
  C   3.26326830407745     -2.02552403343791     -0.20345708859493
  N   2.42164385720028     -1.62561790917038     -1.08504140092491
  O   2.82368772423966     -0.39539022977080     -1.59394198553088
  C   3.97673186278175     -0.04205427920547     -0.96785525404182
  N   4.62548484866113      1.01155585946992     -1.22902516273085
  N   5.77970601588854      1.17333532929258     -0.51474589402111
  C   6.23080506965953      0.32754181297025      0.52779311962568
  C   7.25558337814267      0.59636440308850      1.36838908137470
  C   8.19742888465602      1.71511733840957      1.37099994711627
  N   8.65477872474755      2.16403927230709      2.46437848578176
  N   8.69560673329449      2.16900301631262      0.12402514524022
  C   7.90599725570323      2.43668861673773     -0.81871372116186
  C   6.41106274685921      2.41213431746727     -0.81029320884862
  N   5.70852364408511      3.39390450153670     -1.16338683227471
  H   3.11130007644536     -2.96764671743335      0.29960429341295
  H   7.40694607643112     -0.09082712962932      2.18522283259340
  H   9.37082080814062      2.86695102702529      2.27908107544140
  H   8.32851006435238      2.79999251569972     -1.75626322757664
  H   6.29696108802614      4.18191875185054     -1.43105581435785
