21
Coordinates from ORCA-job 9310optt
  Br  1.73946641408206     -0.08649200846419      1.02905564592283
  C   3.53405269542924     -0.51034580384832      0.70957096150383
  C   3.93733079958616     -1.54907791887648     -0.03284845263311
  C   3.23646890708847     -2.63634587457912     -0.75376876295976
  N   2.03516356218501     -2.92522380172145     -0.95359053007338
  O   4.22474883226842     -3.45151650909514     -1.27429532139999
  C   5.44539208031776     -2.92321247653291     -0.96203283077123
  C   5.35146157751467     -1.80397333280998     -0.21046842071948
  N   6.28216444432709     -1.00166978701946      0.49860462950157
  C   5.68861398907771      0.06188217857256      1.19092651636101
  N   4.44945019746862      0.33083997409326      1.30329052666261
  C   7.69954253506193     -1.04695134299220      0.69413529596248
  N   8.70759636543003     -1.71156451458989      0.31005870852947
  C   8.80381666427679     -2.67666865984878     -0.73071235882743
  O   9.77831049514187     -3.33253385882205     -0.91333743399426
  N   7.61224331951576     -2.60917621777119     -1.45172070163677
  C   6.73998746825976     -3.50095273186301     -1.17871116802456
  H   1.41208172957056     -2.25069160801030     -0.52068432552230
  H   6.39174757064765      0.72461934135450      1.67886487849732
  H   7.94047094169344     -0.26398423036319      1.40851102586186
  H   6.97788941105693     -4.51696081681264     -0.85184788224070
