21
Coordinates from ORCA-job 9312optt
  Br  1.14280402133615      0.20447058436987      0.09811679407826
  C   2.99989140563384      0.14004279090777      0.10146094512307
  C   3.81773756904914      1.23315658555285      0.10450331026668
  C   3.76559866557276      2.72401888754748      0.10686969639652
  N   2.85208407556474      3.56987171557272      0.10780991758776
  O   5.10900463682805      3.18974722186404      0.10850765670262
  C   5.95211888375521      2.13043114318328      0.10739064707453
  C   7.24945437932020      1.79180886956384      0.10728220451003
  C   7.29861249025123      0.26986002204541      0.10510512337653
  N   8.30212717075150     -0.49327729934309      0.10401918832525
  C   5.86279514999666     -0.20693495017385      0.10385785585344
  C   5.02833848204855     -1.34519661662532      0.10148700741837
  N   5.20097361475697     -2.64678233675508      0.09999877093213
  C   3.94683823522991     -3.13838615602033      0.09816144717666
  N   2.96644451530642     -2.25673232135963      0.09820910883280
  N   3.61917546661901     -1.08212951039052      0.10045470029342
  C   5.16179959188106      0.94033299782729      0.10530914100797
  H   1.93857197628285      3.12216973569199      0.10657012006683
  H   8.13493690728090      2.40663427355904      0.10824061019820
  H   9.17243381062285      0.04048568805302      0.10495513182298
  H   3.73325895191195     -4.19559132507079      0.09669062295596
