25
Coordinates from ORCA-job 9314optt
  Br  1.04779238384175      0.17255870634143      0.46310471826070
  C   2.90468178051224      0.04507716617336      0.25629789812969
  C   3.58336829760170     -1.11035614117998      0.10197330964253
  C   2.97762336130474     -2.47440165362722     -0.00638581170663
  N   1.91608110699644     -2.79263063117912     -0.59600903133251
  O   3.67227989372684     -3.48658909537162      0.57860359544994
  C   5.07074658345527     -3.41389396079600      0.85182094248845
  C   5.76491495410774     -2.36086876070497     -0.00251939452280
  C   5.81060017709251     -3.09528877818813     -1.35146307760823
  O   6.03005710104785     -4.46343182647628     -1.00270676636820
  C   5.67530318242825     -4.68636635826668      0.29514376888989
  N   5.83663140629898     -5.74996023149755      0.93126568184983
  C   5.03400952948574     -1.06429508451622      0.03713244219892
  C   5.64465248379849      0.11970654366305      0.09468244529527
  O   4.98032199621441      1.28465886832090      0.18886369297837
  C   3.60671621020788      1.33973841397064      0.30729035301317
  N   3.02091433388921      2.44281136087232      0.44308248879769
  H   1.43191706657490     -1.98009673712855     -0.96325832472105
  H   5.22894093178149     -3.31789035260171      1.92356302912198
  H   6.78491186892067     -2.23729254845628      0.36672984647123
  H   6.63026184698648     -2.76834075461151     -1.98740615295826
  H   4.86688350761404     -3.00399766904095     -1.89511982376524
  H   6.25267669873441     -6.47436968008714      0.34646431552963
  H   6.71648553585761      0.26156298025939      0.07783458981632
  H   3.68622776152030      3.21295622412883      0.45601526504932
