29
Coordinates from ORCA-job 9315optt
  Br  1.08822670146401     -0.19994926830629     -0.01656692845337
  C   2.95173138207989      0.02988013038909     -0.01253106901251
  C   3.57515061188460      1.22956442064784      0.00328659385528
  C   3.10894251853175      2.62709471005475      0.02069157550765
  N   1.97534427168601      3.16888519041140      0.02695769152884
  O   4.22363152404532      3.41353769228003      0.03098606145796
  C   5.45244891022717      2.66227044202904      0.02248560052141
  C   6.24743673595036      3.01921776599537      1.27867109344012
  C   6.70989325520214      4.46890718835079      1.21431659414778
  O   7.47276955200969      4.70679922979431      0.04933620715257
  C   6.71085683775399      4.49882507573497     -1.12176330482609
  C   6.24867012904757      3.05094255164114     -1.22345819804403
  C   5.00258460191699      1.22571214576270      0.00369252891268
  C   5.74065704562122      0.10160896213708     -0.01079259070439
  C   5.07869653571960     -1.19299461583717     -0.02998854550404
  N   5.57160781273373     -2.36700232402674     -0.04923895376518
  N   3.67151177282661     -1.11101911487341     -0.02694845014736
  H   1.23399782710036      2.47785339220175      0.01846809603941
  H   7.11752533137890      2.36072034565329      1.33688388631139
  H   5.62642013307533      2.84910437383161      2.16026700184118
  H   7.35026971538073      4.70693929195407      2.06224550182320
  H   5.83963558237480      5.13584618868602      1.23495642523400
  H   7.35193723935316      4.75785273419610     -1.96299375016751
  H   5.84068273048994      5.16616344312602     -1.12649716060479
  H   7.11889157001617      2.39423996491962     -1.29707587191003
  H   5.62854076690433      2.90342528788336     -2.10968385916205
  H   6.82299446445738      0.11584102557081     -0.01034889576487
  H   6.58591549384130     -2.33758522414343     -0.04965584885153
  H   3.20002894692691     -2.00568100606413     -0.03970143085575
