22
Coordinates from ORCA-job 9321optt
  Br  2.16491695381418     -2.38020060866890     -1.63276233244415
  C   3.65700852615803     -1.39237720739406     -1.02408471966606
  C   3.78790703326336     -1.08727803437566      0.29986638832984
  C   4.85778921436130     -0.13691888601217      0.59507316750656
  N   4.99167103832268      0.77104298342497      1.43689342128186
  O   6.00500686044316     -0.42398557005850     -0.19387459478096
  C   5.90498592660774     -1.19357515981038     -1.25471386521776
  C   4.73311432844450     -1.27934103759227     -1.95735312704437
  N   6.88390650610882     -2.21811505861273     -1.09325265515771
  C   6.22775494189107     -3.26724808601249     -0.78830686932450
  C   6.65441931676641     -4.16928747616535      0.33347494164033
  O   7.60677515938023     -4.83867827023497      0.49825190885172
  O   5.71727804734808     -3.91018529415904      1.33342420884051
  C   4.37704102625386     -4.24529860165330      1.19802407092233
  C   3.34284515766958     -3.41446037442797      1.27793804036820
  C   3.32267046149631     -1.90834299662676      1.45520636592272
  O   3.05132840802952     -1.43146153077769      2.52538675175262
  H   4.13984883681211      0.87308531384995      1.98390498835197
  H   4.67847175978181     -1.81498709392867     -2.89189682038729
  H   5.16949002906675     -3.38815747149824     -1.02105120505472
  H   4.21703897904189     -5.31481883165579      1.11714645038372
  H   2.36873148893855     -3.88941070760993      1.28470548492511
