21
Coordinates from ORCA-job 9323optt
  Br  3.96827809951403      1.81201395024021      0.31837240917625
  C   3.14737064109369      0.23109879305857     -0.24264746490262
  C   3.77159724086395     -0.86392656239737     -0.66982743796060
  C   5.21386581409209     -1.01408664969483     -0.78915360543077
  N   5.81330515180270     -2.06386272493742     -1.18464767911976
  O   5.05485151122341     -3.16358481715266     -1.53607660506510
  C   3.69767462369994     -3.11595865802360     -1.46765235330155
  C   3.01017174978118     -2.04255095923041     -1.06299961474224
  C   1.55776443970244     -1.91722003058810     -0.95523205298869
  C   1.03475401804992     -0.75129685087112     -0.50789803999749
  O   1.78084700380541      0.33323288957919     -0.15005846001742
  C   -0.35295217085601     -0.49525048016644     -0.34069211752850
  C   -1.52101268406914     -0.25519756217025     -0.17028748636904
  C   -2.85542324490134      0.00309655197039      0.01006932624323
  C   -4.02465830037296      0.22478994197533      0.16872108221360
  C   0.63829348339785     -3.01311567481408     -1.30292952561310
  O   1.00881295893486     -4.08767979566251     -1.70364543623204
  H   5.87328668681856     -0.19354342348325     -0.53336637944437
  H   3.25784973395679     -4.04797376382580     -1.78127953748441
  H   -0.43323282751727     -2.79484559575244     -1.17252082472253
  H   -5.06144392902013      0.42086142194661      0.30975180328719
