25
Coordinates from ORCA-job 9331optt
  Br  1.01876260327727     -0.21056629201710     -0.19488134887606
  C   2.87852561182728     -0.00292480195136     -0.02612858686931
  C   3.51684323623330      1.16803100538918     -0.14709219555542
  C   2.91398474613452      2.45129331337363     -0.42659699235333
  N   3.53094340738339      3.55769686613288     -0.56247941712197
  O   4.93333232525190      3.53778319689919     -0.43304867837757
  C   5.56475145772259      2.40091417693254     -0.15304863513416
  C   4.95991958673361      1.21299684786428      0.00437387787257
  C   5.74636864426077      0.00696917641431      0.29983352695356
  O   6.93730567920733      0.00657752047827      0.46605483813797
  C   4.94627967301603     -1.28746388457063      0.37328209353450
  N   3.56297019889820     -1.17313918718447      0.23216463463383
  N   5.55872758127132     -2.37773558093060      0.55238375358609
  C   4.78983791449821     -3.60177156971753      0.59487151623653
  C   5.71488437154999     -4.79995426765617      0.67643687082053
  C   4.97654395945357     -6.10553717390940      0.70858013074547
  O   3.77846850287966     -6.19866094896512      0.70238919862854
  H   1.83932581195436      2.54126794761673     -0.53917794330970
  H   6.63586168584038      2.53220601382561     -0.06589396394142
  H   3.01761148210757     -2.01778426289569      0.31070339633774
  H   4.15447779895762     -3.70448804515228     -0.29572571643524
  H   4.11293715686823     -3.60864739616130      1.45964333726393
  H   6.35222128863672     -4.73974194022501      1.56424224761209
  H   6.40385507049131     -4.81236729820382     -0.17406158597503
  H   5.60626020554480     -7.01495341538612      0.73717564158588
