20
Coordinates from ORCA-job 9337optt
  Br  1.02281887832731      0.13547345293104     -0.66521957348772
  C   2.81380879010487      0.07828061780095     -0.14566171375483
  C   3.47735131634336     -1.07362577767757     -0.03931164371732
  C   3.10039398612148     -2.50845610870548     -0.04003022552280
  N   2.01933378564803     -3.13483008022464     -0.10283035656596
  O   4.28195842287660     -3.21097898073700      0.10879454268380
  C   5.33441832070397     -2.32784933503412      0.14716987177550
  C   4.90613141180902     -1.06981804275758      0.08150771076441
  O   5.61932220287625      0.08269382273263     -0.02980288402848
  C   4.95215356744134      1.24913341650075     -0.09226483159420
  C   5.64677603112792      2.40845523092967     -0.19612717866556
  Br  7.52339694328443      2.37495942869582     -0.32009271740249
  N   5.03636602868408      3.61616488892322     -0.20994675597664
  C   3.77180326277785      3.68738573779151     -0.00878195374330
  C   2.91898629319898      2.52864879756052      0.25508523549664
  O   1.78748415693459      2.59071732607594      0.65705848496684
  N   3.56073930887413      1.28346037166502     -0.02281050521962
  H   1.22969359633289     -2.50706987529245     -0.21804293776025
  H   6.32219812413466     -2.75182286165098      0.19055193530559
  H   3.28086557239819      4.65307797047275      0.01875549644638
