24
Coordinates from ORCA-job 9339optt
  Br  1.39548969865470     -0.13768441330763     -0.93844623393679
  C   3.21077345323684      0.04522901484628     -0.46889900458772
  C   3.77771741989977      1.22978478013370     -0.20382872697523
  C   3.23211423773225      2.61315800556227     -0.15760279132723
  N   2.10020830123971      3.12142325101521     -0.33771477565844
  O   4.28655192122199      3.43206031029722      0.17386295602998
  C   5.41441567571865      2.66832151460094      0.33406009421847
  C   5.18776924731647      1.36874814680885      0.13088923982385
  S   6.28357492047333      0.00951419701835      0.20575613528651
  C   5.11975055911266     -1.24995011772436     -0.15362949981332
  N   3.88013447923719     -1.16258903141929     -0.42461607651129
  C   5.76289399695319     -2.62431568064551     -0.13599022266483
  O   6.94971818835805     -2.69949947447133      0.03759608735332
  C   4.86995923330284     -3.81392045184506     -0.36982310053421
  C   5.58320470675581     -5.10160964801890     -0.01178690545183
  C   5.85082817351349     -5.20090583901274      1.46816548406299
  O   5.45826945530344     -4.39924898577603      2.26923828150965
  H   1.40858113916538      2.41886600970028     -0.57645359323341
  H   6.30990771869386      3.20666320121839      0.59339549164981
  H   4.56783910582049     -3.79683578340657     -1.42012590981462
  H   3.95864103498120     -3.68143800406772      0.21233083726337
  H   6.54107361162646     -5.19049275958776     -0.53052825610370
  H   4.99177557977813     -5.97579451197363     -0.29948438106524
  H   6.43580814190400     -6.08148372994496      1.79163487047991
