19
Coordinates from ORCA-job 933optt
  C   2.06471046134152     -0.47167514351768     -1.31313241604895
  N   2.28426427627795      0.05724829599248      0.02287445038465
  C   3.15610039424037      1.20946920444404      0.01720349087212
  C   2.54602159381892      2.52142461602927     -0.52052182723363
  C   3.22930154152655      3.27698457663450      0.63845760114480
  N   4.45250966663941      3.93510300256283      0.20664720560056
  C   3.38336493210771      1.91365883375722      1.36594466016613
  H   1.43898111988298     -1.36194751734561     -1.26362900609545
  H   2.99465350651669     -0.72509398821851     -1.84234728571350
  H   1.53677510854058      0.27583491013180     -1.90826527376347
  H   2.67134279566347     -0.66113934343239      0.62436899601407
  H   4.11332506469446      1.00024142809850     -0.48538469207174
  H   1.46196289175952      2.49743684676332     -0.40610311087927
  H   2.80964319753020      2.84721959583229     -1.52618453455901
  H   2.61527063052401      4.01507625966326      1.15200805573517
  H   5.04711513048248      3.29436942005806     -0.30794578588597
  H   4.98629844383359      4.26226624512327      1.00390401661263
  H   4.32464915484024      1.73640511609378      1.88684296133884
  H   2.54371008977933      1.71411764132955      2.03326249438204
