23
Coordinates from ORCA-job 9343optt
  Br  1.07970846655866      0.08292177182473      0.22881273770399
  C   2.94393532361365     -0.02520574278222      0.05014559219772
  C   3.65833748992435     -1.17469749226964      0.10116006622015
  C   3.29703386194596     -2.59355650452936      0.28576262389588
  N   2.22103027743529     -3.20666081641720      0.47834183179223
  O   4.46205806965926     -3.30925737354620      0.21716863217954
  C   5.61391519552058     -2.48226984430400      0.10182716369625
  C   6.46237582889879     -2.65024525435979      1.32157004313677
  C   6.13804398604599     -3.30445408413317      2.45970288809113
  O   7.13517679642091     -3.21521116527007      3.33926872714287
  N   8.16171261687382     -2.49471650843905      2.79244888541875
  C   7.76787076625906     -2.15851003031502      1.60039553987327
  C   5.06941145694222     -1.07858508590311     -0.04121319805220
  C   5.72884884040785      0.08037063863751     -0.23350164552313
  C   4.98088407080502      1.32050382118340     -0.29345232688887
  O   5.42049527102862      2.43553543013819     -0.45281382205035
  N   3.58291347350929      1.14825910259617     -0.13865971857368
  H   1.42810910376300     -2.57537172043072      0.50204629788315
  H   6.16106098645175     -2.77912382379953     -0.79671633440291
  H   5.26744229527993     -3.86602244329660      2.75500757455325
  H   8.42832389201892     -1.57766353256684      0.97494727686603
  H   6.80218218159165      0.15138461576810     -0.33730072716049
  H   3.05112974904540      2.00857604221445     -0.17694810799935
