25
Coordinates from ORCA-job 9344optt
  Br  1.10789030214933      0.17652118851669     -0.22087958963222
  C   2.96377455719812     -0.01448344389996      0.01564874529770
  C   3.60551797585293     -1.17400027105168      0.32852176512546
  C   2.95810016626955     -2.46154536921487      0.70434705144700
  N   1.84475724517315     -2.64428738712422      1.26332735607707
  O   3.69460255998771     -3.57944542932910      0.47989066759155
  C   4.95333349087065     -3.48334025552886     -0.15509207488484
  C   5.78176513692099     -2.38673260339852      0.50432448708622
  C   7.18595305914845     -2.38389029427335     -0.06857941662303
  O   7.74114142739600     -3.39730621633946     -0.37137624384191
  O   7.80612070020091     -1.20921864798619     -0.24072247060565
  C   7.22505364539975      0.04116383395674      0.11834340973044
  C   5.73081677388304      0.04488154819261      0.11798986773329
  C   5.02907024483499      1.29852768392099     -0.10037838936130
  N   5.47211377857769      2.48581160869980     -0.23028343810270
  N   3.64318931332753      1.13135149377313     -0.20298984441128
  C   5.04620955355661     -1.09570591191610      0.32601676102372
  H   1.36886324075696     -1.77379689936066      1.46394185872966
  H   4.83330821799753     -3.26523025747334     -1.22115312208146
  H   5.42858357857671     -4.45272946826366     -0.04575201076347
  H   5.87054906335922     -2.62459649346034      1.57149500718216
  H   7.60529119349110      0.75114141272884     -0.61712081611387
  H   7.61735162918012      0.33610358266854      1.09717257321228
  H   6.48140168889130      2.53495355376281     -0.15059244986920
  H   3.13424145699958      1.97785304240016     -0.42109968394563
