28
Coordinates from ORCA-job 9346optt
  Br  1.04981003044242      0.27685656708827      0.69223400185752
  C   2.86630788054972      0.12365717261882      0.16082871285705
  C   3.56082379012177     -1.08713770831109      0.18017583488806
  C   2.92155268294268     -2.42359986219703      0.40654063250956
  N   1.78555716388203     -2.79936785421680      0.01907232647051
  O   3.67869424070635     -3.35751361261073      1.03474958450605
  C   5.04284133036719     -3.07349036950400      1.29003781373640
  C   5.66753865740680     -2.37199780084918      0.09884463450799
  C   4.93616689577313     -1.07024619297658     -0.09578734793653
  C   5.57855051658255      0.10873236970175     -0.47362871969306
  C   4.84348049811267      1.28334097257616     -0.54391999804582
  C   3.50109880598172      1.29862280303920     -0.20535431838667
  C   7.06473389669355      0.10912650137960     -0.76297874916822
  C   7.94508505691466      0.06207963120485      0.51885916097757
  O   8.72658188180873      1.26572838189410      0.45160969131428
  C   8.37610136961079      1.86387441608885     -0.70452252503122
  N   7.49772902603759      1.33916256842914     -1.43771345946413
  H   1.28066089121921     -2.05065259492814     -0.44115543342736
  H   5.50792629735949     -4.03749351658901      1.48572597640255
  H   5.13228965996864     -2.44874914346215      2.18494145842404
  H   5.57697075502696     -3.01194836377218     -0.78456219536161
  H   6.72970824224055     -2.21495946065080      0.28329289505563
  H   5.33229141293379      2.19585307136231     -0.85708578628553
  H   2.94196531025416      2.22361344419405     -0.22124353704882
  H   7.29499251401806     -0.73225715555087     -1.41959295650012
  H   8.62962447778616     -0.78553662370840      0.53657057142543
  H   7.35760545071296      0.08055534374910      1.43643226425143
  H   8.90331126454561      2.78474701600075     -0.91837053283501
