27
Coordinates from ORCA-job 9349optt
  Br  0.90852543113865      0.57592732920681      0.52701635372731
  C   2.64734059783775      0.96722061943149      1.12930148934091
  C   3.55798522897972      1.63499204363371      0.41262734840240
  C   3.52712702968951      2.21959365115088     -0.96039852007979
  N   2.64433093183078      2.32224481589104     -1.84526820916973
  O   4.78144452834694      2.72127144925732     -1.19546314699990
  C   5.57678755567028      2.50982187916099     -0.08282942952528
  C   6.95542674497713      3.04335725788342     -0.16703112930250
  C   6.99384499992433      4.57927677001774     -0.13708954195117
  C   6.46413389653390      5.13892158944543      1.15696411020000
  C   5.92213503291983      6.53384193891622      1.20543122817526
  C   4.99006669359189      5.36342316368014      1.31588191334642
  C   4.90400079647901      1.89289506406446      0.89456753661443
  S   5.37399236138969      1.46852250595738      2.52852628070807
  N   4.05565040217747      0.63091433094095      3.09994243562052
  C   2.96357275939928      0.46414560433035      2.47245409803351
  H   1.76607361902154      1.91316933900296     -1.54386519315855
  H   7.41414294603732      2.67864534018925     -1.08966568047467
  H   7.53143058265034      2.64085892178887      0.66992880615143
  H   6.40331220985061      4.96817630397495     -0.97112255241251
  H   8.02503336113096      4.90281712068495     -0.29666090062787
  H   6.99052373419100      4.80453057301099      2.04487162922555
  H   5.91537809526013      7.09582108198306      0.28094820739495
  H   6.10759948086659      7.12376911176066      2.09119296252697
  H   4.36292503273214      5.14365241950699      0.46095842184572
  H   4.53896348381612      5.15611938026151      2.27587421326009
  H   2.18525246355694     -0.09492960513265      2.98490726912840
