23
Coordinates from ORCA-job 9351optt
  Br  1.40955403479232      0.20597619348184      0.50137409739541
  C   3.26142536040295     -0.01863769513742      0.19531197931144
  C   3.85763478489123     -1.26909784681234      0.01757066327905
  C   3.16787770889721     -2.59185682817032     -0.09945748525084
  N   2.02163183012591     -2.82061674299851     -0.55932927389572
  O   3.89047200528326     -3.67377198939338      0.28298739577939
  C   5.21316983658560     -3.51148182304189      0.75527149647868
  C   5.99558399917532     -2.53999333556776     -0.12809219112363
  C   6.11071294429464     -3.02018773571676     -1.50429523450565
  C   6.17911903273517     -3.41648100699241     -2.63077161672620
  C   5.25290044853362     -1.22782015712811     -0.07662653796822
  N   5.95624154119194     -0.10586690493863     -0.07469494896000
  C   5.25162578934001      0.99772747079815      0.05392876206147
  O   5.93444480430020      2.18174140722281     -0.01359406293363
  C   6.82066373822842      2.45059481475181      0.98204659115673
  O   6.95476183431104      1.80639186612954      1.96738977834849
  N   3.94965439625731      1.10516876782151      0.21044921985803
  H   1.54569955058859     -1.97344640602566     -0.84520314453226
  H   5.65778326355064     -4.50313221732124      0.73400325328959
  H   5.20798510261416     -3.13844135009033      1.78362105733056
  H   6.99016063581466     -2.37636933487489      0.29113064337993
  H   6.24071329251564     -3.77320867861182     -3.63139101656725
  H   7.36618406557005      3.36380953261583      0.72737057479463
