23
Coordinates from ORCA-job 9353optt
  Br  1.10396784165564      0.09932906975454      0.26354075346243
  C   2.97060492624233     -0.01368194954273      0.13274934525011
  C   3.68479917489008     -1.16857918992448      0.01125416014229
  C   3.07309683255792     -2.52942494163537     -0.17516824454372
  N   2.02535840253190     -2.81861269803033     -0.79787917846283
  O   3.78175754264828     -3.57991764650044      0.32542171666416
  C   5.02473894181135     -3.36466458966659      0.93944573416449
  C   5.89036377336992     -2.41458970767324      0.08169549566339
  C   7.20861240574078     -2.27118467938664      0.70308843642669
  C   8.27352403202743     -2.18175560125135      1.23911927088600
  C   6.04476537792251     -2.98128897502171     -1.27480013588405
  N   6.15807807944991     -3.40952055112963     -2.33051487083901
  C   5.12185050838263     -1.10368663190766      0.03329937273691
  C   5.73624276554482      0.09447854391064      0.10548753592494
  N   5.00852014109221      1.23419199265131      0.15445168576933
  C   3.62192275935704      1.30256495471476      0.20273008405171
  O   3.06060448889949      2.36921803632921      0.28937632458652
  H   1.55012368049613     -1.99695826819300     -1.15376721977513
  H   5.49584790645929     -4.34019736498828      1.03099504105860
  H   4.91772347405652     -2.91148329573080      1.92892700852365
  H   9.22560784445988     -2.10535995207597      1.70978455125706
  H   6.81180833533052      0.19649757810813      0.14383837267639
  H   5.46908076507338      2.13262586718965      0.20492476026007
