25
Coordinates from ORCA-job 9355optt
  Br  1.15759015788632     -0.12589209668615      0.12440708141464
  C   2.98869297619128      0.16022640884358      0.03872432428113
  C   3.60685004387075      1.32913264384436     -0.02937015155306
  C   3.20609499840643      2.74774506065595     -0.07460421067505
  N   2.10824172600286      3.34835003704293     -0.06493969753347
  O   4.38496382511757      3.46229793649121     -0.14418634659440
  C   5.46856792654750      2.59815434838958     -0.15199369084392
  C   6.79476154756775      3.25303670234023     -0.23317635197672
  C   7.97094586656331      2.27741047742786     -0.19170916709758
  N   9.24930245031285      2.95011617878766     -0.25325357606063
  C   9.77147406621411      3.38502975111050     -1.44626551507789
  N   10.71429317546213      4.20466301985734     -1.65341542916202
  C   5.04045455648509      1.33618945738306     -0.08141224456481
  O   5.74002284867010      0.15642810572957     -0.05570714220218
  C   5.08386399011604     -1.02118950159617      0.00426199334800
  O   5.65451448222060     -2.05100792005396      0.01828886918767
  O   3.71166763146914     -0.99980044496425      0.05196094207259
  H   1.33164211327938      2.69476664591901     -0.01312143043771
  H   6.87214723935266      3.96950796167745      0.59066846383074
  H   6.83467023581595      3.84481765647122     -1.15332478158358
  H   7.91226012889978      1.58292303515736     -1.03135875954577
  H   7.93213425216450      1.67281647835909      0.71487387665729
  H   9.55438837366358      3.43548044772333      0.57729940993882
  H   9.29899406634435      2.90590583959677     -2.30631266816727
  H   11.08146132137588      4.59589177049245     -0.78533379765482
