25
Coordinates from ORCA-job 9361optt
  Br  1.05141119412839      0.29819157322498      0.60017585619355
  C   2.90637099370199      0.02894166391697      0.48146667886851
  C   3.49777875013715     -1.13073704512412      0.10236149242864
  C   2.77198522670339     -2.29252592044129     -0.52245406814728
  N   1.74751205286024     -2.24389353948106     -1.24703059122806
  O   3.35352384609148     -3.51074794808579     -0.40833829621300
  C   4.51339551084877     -3.69580932046442      0.37398886914961
  C   5.53270934657532     -2.59386421455301      0.18580192608330
  O   6.72029651369700     -2.83910746038179      0.17112508853208
  C   4.94337104725718     -1.25640861670409      0.17202444950882
  C   5.69775519763181     -0.14428365215290      0.43897244315818
  C   7.20865904281945     -0.14735860106175      0.49408095633559
  C   7.78676222596821      1.16037221015284      0.78076329484473
  C   8.22997849451060      2.24739906302207      1.01762042800082
  N   5.07962985859335      1.01938518035131      0.69932004138558
  C   3.69860070245156      1.21060592498384      0.84595317861204
  N   3.17609813430409      2.30500808941919      1.22142901357094
  H   1.37116375747040     -1.30609264786254     -1.31559819047948
  H   4.94518652857052     -4.64656321925222      0.07368071054211
  H   4.25819317983222     -3.74086054692163      1.43991604607238
  H   7.59491924988117     -0.53609257157921     -0.44904328998618
  H   7.52358651473645     -0.87810257504195      1.24255843583345
  H   8.65331159051142      3.20218582525207      1.22467470172714
  H   5.67119188980486      1.82266765017771      0.88376796627828
  H   3.86960915091292      3.02169069860681      1.42278285892826
