25
Coordinates from ORCA-job 9363optt
  Br  1.14344018795653      0.19928761729415     -0.21491879448881
  C   3.01608094272774      0.11389471669831     -0.09131342788942
  C   3.68996447627238     -1.06028176357869     -0.10324070646485
  C   3.30926751885657     -2.48359313245142     -0.19732041456575
  N   2.21665841219560     -3.10039902467678     -0.27201716256959
  O   4.48444562103872     -3.18073928980093     -0.18769298084912
  C   5.57924124582040     -2.31973142644046     -0.08119072876401
  C   6.85313705960170     -2.99553586790691     -0.08338566857914
  O   7.95197162746503     -2.48583068730747      0.01928491379025
  C   5.12532873405881     -1.03255978340775     -0.02628589649224
  N   5.72554902806549      0.20399904611409      0.07720702686000
  C   7.17949196523150      0.35936954222746      0.04315603021010
  C   7.70415527145039      0.23728365428452     -1.38964893032756
  C   7.15294959993529      1.28554366057881     -2.24215425979110
  C   6.64637537019069      2.15811526725416     -2.88805499989141
  C   4.93214165693361      1.30116245290339      0.06778985333973
  N   3.63991025144239      1.31553404205868      0.00178392898883
  H   1.43086821341900     -2.45935416987859     -0.26948742330898
  H   6.74349176374214     -4.08696375061682     -0.19696878247928
  H   7.62330033280646     -0.41531823954539      0.66025595773944
  H   7.41147971272072      1.34108174781114      0.45264223742591
  H   7.44761871903609     -0.74737273592521     -1.78352247868256
  H   8.79352208403589      0.29107214674326     -1.36391189532666
  H   6.20756762005950      2.92393696296420     -3.48273033181202
  H   5.46204258493718      2.24439901460425      0.12772493392826
