20
Coordinates from ORCA-job 9364optt
  Br  1.12859194394312     -0.00621612024213     -0.15873498063428
  C   3.00320402569273      0.10319711982933     -0.07085304533600
  C   3.64537166982956      1.28351318481688     -0.04982346997089
  C   3.14607665255763      2.69604147164392     -0.09293937094958
  N   2.01027029984017      3.21797476006857     -0.15754826834939
  O   4.25296828873886      3.50300391869505     -0.04503640401396
  C   5.37850472279163      2.72527828037296      0.02478927131284
  C   6.69031162358855      3.35941915006494      0.08458648460548
  O   6.87731702228342      4.54538821892412      0.07435504188617
  C   5.08926914490297      1.40719043608934      0.02750853032662
  S   6.09742475308910     -0.00274265041821      0.11124913594104
  N   5.02041521518549     -1.24573541849005      0.06914463693666
  C   3.75075441067454     -1.16669739008413     -0.00824021570452
  C   3.01619616821720     -2.49506590136627     -0.02388509956710
  C   2.40131475809978     -2.76596239077765     -1.32385945343150
  N   1.93176514861845     -2.97124681065679     -2.34785545380984
  H   1.27001554210292      2.52738202021697     -0.18792404289186
  H   7.52675867087435      2.63653835817627      0.14280602134218
  H   2.23734552117757     -2.51847834426183      0.74004699963155
  H   3.74412441779189     -3.27478189260131      0.19121368267638
