22
Coordinates from ORCA-job 9366optt
  Br  1.04079868026736      0.07205555557045     -0.08793819312838
  C   2.91072298569554      0.10074188992370     -0.07637690046003
  C   3.67455281487126      1.20524036345331     -0.00912153084349
  C   3.36800270399952      2.63935831714651      0.05514091369483
  N   2.32169579754579      3.33567201454916      0.09135412435089
  O   4.59217874197710      3.26090915431414      0.05443008790083
  C   5.61954256481248      2.33627123036448     -0.01071200542725
  C   6.96325761439081      2.94178695028842     -0.01671535981831
  O   7.95780297068249      2.33758106305581     -0.32991799112755
  C   7.01023360588162      4.40362337447395      0.38098977631707
  C   6.60159397808019      4.62885140526728      1.81834234474508
  O   6.36357331458221      3.74785559530630      2.59344333302053
  C   5.12220673398464      1.07789201035003     -0.03842266337158
  C   5.61761110441889     -0.28560912330593     -0.02979188962732
  Br  7.44138143429035     -0.68720742471558      0.13311306629085
  N   4.84182724828363     -1.30380077611619     -0.08491754661695
  N   3.50792182804405     -1.11442486813078     -0.14806798717841
  H   1.48849907743770      2.75799255197479      0.08683220228269
  H   6.35107295576472      5.00215884655783     -0.25343657230189
  H   8.03132385667750      4.76605175550087      0.24563114177576
  H   6.54937648870667      5.68852205449197      2.12913437954929
  H   2.96382349960537     -1.96152194032058     -0.16999273002666
