22
Coordinates from ORCA-job 9371optt
  Br  1.64233914132358     -0.21291894040585     -0.46307020616386
  C   3.49115202663658     -0.12638410729990     -0.18053392574725
  C   4.17632809254715      1.04872257311620     -0.01854496318927
  C   3.57110809179142      2.36544608862756     -0.06173273751907
  N   4.18459624921498      3.46791769853884      0.10170769957767
  O   5.54779151687490      3.44061275488021      0.35017092630061
  C   6.29242398468047      2.29165488311458      0.40184989355622
  N   7.53115175812155      2.34582518273009      0.61476357243383
  C   5.58270019765931      1.01999767206729      0.20725613137878
  C   6.26365492965879     -0.15085203461462      0.25531176595166
  N   5.57495802222346     -1.31261546148743      0.08490224203104
  C   6.00518625013905     -2.60764362240061      0.09033784475962
  C   4.87659738833302     -3.36941050588632     -0.12290619221833
  N   3.76595022171515     -2.59055921252573     -0.25967839840571
  C   4.19248097870314     -1.35528635734913     -0.13333734222118
  C   4.83318202999858     -4.79036095162942     -0.19547902761973
  C   4.81870688685270     -5.98643536670204     -0.25292469858099
  H   2.51081197696445      2.47367632764621     -0.25037838870701
  H   7.84499941042617      3.30801671906347      0.72779566838221
  H   7.32862195792393     -0.20372238612614      0.42706798201648
  H   7.03572106956348     -2.87392171921156      0.24304296345721
  H   4.79453781864811     -7.04875923414569     -0.30562080947293
