24
Coordinates from ORCA-job 9373optt
  Br  0.91693487581907     -0.15416679693425     -0.04106209494835
  C   2.78202352233950     -0.14494615616843      0.03711005332241
  C   3.56541166582500     -1.21665186864963     -0.05962573205107
  C   3.28626895062848     -2.65204363878043     -0.23654115770597
  N   2.26805395678819     -3.37543613331121     -0.31173060237673
  O   4.53511538356063     -3.26026703938863     -0.31892695464167
  C   5.51609899981282     -2.31065774787901     -0.17494632305079
  N   6.79714844152650     -2.76784661658004     -0.29287539830657
  C   7.25318368887678     -4.06986328924965     -0.12454449781740
  C   8.55463859070188     -4.50882487189399     -0.01107228904996
  C   8.42767693502555     -5.90779634864867      0.10192083266427
  N   7.17087347265758     -6.29689105787135      0.06325436443934
  N   6.46380378577673     -5.16070002421989     -0.07691954629495
  C   5.01322815260367     -1.07716969579951     -0.00110592607507
  C   5.52135789509811      0.26054102883597      0.19533232473921
  C   4.64675038345771      1.25916506670859      0.29052323991392
  O   3.27292893219245      1.10854161352886      0.20611732878423
  H   1.41898682337045     -2.82398154934747     -0.23474607300828
  H   7.51424650208731     -2.06297076947039     -0.27676938823665
  H   9.44815921563371     -3.90907115053695     -0.00979011369713
  H   9.21049201947423     -6.64058365319253      0.21380666758686
  H   5.46004992369594     -5.18672995201898     -0.14457640219013
  H   6.57481995504824      0.48672869386933      0.27684448923875
  H   4.89974792799931      2.29562195699835      0.44532319876173
