23
Coordinates from ORCA-job 9378optt
  Br  1.46234645576081     -2.39843954003048     -0.37102818007402
  C   3.02521908904079     -1.44938073973296     -0.74735704231922
  C   3.81536620151815     -0.87805415631138      0.17483226911843
  C   4.92341528727585      0.05326092367486     -0.28839621036778
  N   5.63493242920045      0.79630821980672      0.41910340891559
  O   5.13050657458520      0.09215799085780     -1.67042198556901
  C   5.03641093229012     -1.22548418618317     -2.06869887896508
  N   6.01640728609065     -1.99960703723897     -1.98546776043113
  C   5.61949196240448     -3.30970005865369     -1.53280332376191
  C   5.42977626096508     -3.27625817785818     -0.21339099173711
  N   4.78482093371708     -4.13078977395548      0.67120295226778
  C   4.02144882788310     -3.65119313982429      1.70377044231919
  N   3.69850645453832     -2.48462572699207      2.10004519405641
  C   3.70175915724289     -1.17285511676080      1.64781348203198
  N   3.55075006618013     -0.24757045570518      2.50830287583991
  C   3.57228790225263     -1.61822757150457     -2.12326412684418
  O   3.01758941180141     -2.12914588134012     -3.04881368771082
  H   5.42750271605493      0.69602989450202      1.41090010995771
  H   5.43110787950904     -4.12582313749585     -2.21627372432176
  H   5.74252877969947     -2.36906612570027      0.28909515906886
  H   4.74742244805984     -5.12409862704072      0.50493752797701
  H   3.64258169550716     -4.47707208098631      2.30731420521366
  H   3.47982124842238      0.66163450447312      2.05459828533549
