21
Coordinates from ORCA-job 9384optt
  Br  0.73209664939448      1.42141158559760      1.36788939702788
  C   2.28771062838946      0.63101186363570      0.70722012479242
  C   2.38635424482189     -0.70348407388029      0.51582239686912
  C   1.29243201754749     -1.61982189716544      0.86890784093436
  N   0.96501218131689     -2.67122159662662      0.24484834609322
  O   1.71577271871641     -2.82835457155678     -0.96765509486497
  C   2.92228171620477     -3.40680132162417     -0.74786516213375
  N   3.31142688580661     -4.51035561483750     -1.16661529402956
  O   3.79367752931934     -2.62938156589596     -0.03006778183801
  C   3.64456341904188     -1.28454679149903      0.02819869107573
  C   4.69720392613684     -0.48681865353348     -0.23253464622759
  C   6.05184212569112     -0.73145339851190     -0.70918488340607
  N   6.71170367085043      0.37888140308784     -0.82807202213400
  C   5.84527069879541      1.40933017218486     -0.43893267266814
  C   4.62145600653116      0.93698374273935     -0.06902989174007
  C   3.41982409992105      1.59947788219721      0.40622951804206
  O   3.27868458111153      2.78478122577908      0.57209151315643
  H   0.69666220986288     -1.41417418465819      1.75218468643935
  H   2.54765303918484     -4.99871270975536     -1.62662185350517
  H   6.48171733785526     -1.69540787921578     -0.94426224203806
  H   6.17965431350022      2.43565638353884     -0.45755096984517
