26
Coordinates from ORCA-job 9386optt
  Br  0.99316952276289     -0.18974852206572     -0.42527394931438
  C   2.86575137736773     -0.08391809228830     -0.16935143630250
  C   3.53350726790111      1.14531154794330     -0.06544333653562
  C   2.89257149955274      2.48716293836689      0.11245100884515
  N   1.75604900498939      2.78435899540067      0.55169748069724
  O   3.72413237097436      3.54710961767075     -0.13087370534470
  C   4.93440728457234      3.26482212162613     -0.75528021544847
  O   5.64519520380684      2.27557176528557     -0.04883089881412
  C   4.93981116093982      1.11772804854626     -0.00366676064978
  C   5.63110306017678     -0.07360647610063      0.09583578173573
  C   7.11187853657473     -0.35079926779875      0.18372206578867
  N   7.19287290000635     -1.78795692498969      0.49377095558730
  C   5.92395115437737     -2.40383326429965      0.07874419007242
  C   4.93979075563580     -1.26210257076518      0.03187362432537
  C   3.55650964636134     -1.30173832121305     -0.14298518768979
  C   2.91731846075910     -2.56899618374727     -0.29435451029554
  C   2.44037615621782     -3.66220090783968     -0.41961392040264
  H   1.20197618869242      1.96584476780747      0.76828984257971
  H   5.52967610552415      4.17143888012300     -0.73858065347855
  H   4.76701640456469      2.91224365609101     -1.77940643157947
  H   7.62001841387334      0.24491312793545      0.94088402859941
  H   7.59213639187815     -0.13789614624073     -0.77615942543330
  H   7.29719374104441     -1.89953586265087      1.49352662560256
  H   5.62125300532454     -3.19871846402952      0.76001835234938
  H   6.01642947628252     -2.84976141113693     -0.91714729867913
  H   1.99790490983921     -4.62269305163053     -0.53684622621494
