25
Coordinates from ORCA-job 9388optt
  Br  1.11339123594849      0.09470085012237      0.62475574151802
  C   2.98425681240932     -0.06759073425278      0.37030123181816
  C   3.63159022565220     -1.29268497067597      0.18481574693539
  C   2.96293133629312     -2.60504145241333     -0.08604271006472
  N   1.82376808966756     -2.83595896807119     -0.55589436467790
  O   3.76124689260991     -3.70092143411932      0.10068699815894
  C   4.96754356285537     -3.47489199124048      0.75111836902509
  O   5.70057285950813     -2.46533498378725      0.09594074933395
  C   5.03522266943022     -1.27265615299086      0.13709846935028
  C   5.78679622575180     -0.09514581690452      0.14055210383287
  C   5.07872141940532      1.09674057412478      0.27056984942182
  C   3.70511756959421      1.11434345444167      0.41806559850602
  C   7.24041292582745     -0.07019859951435      0.03279094057369
  C   8.13433607811597      0.95515902103840      0.24313021192643
  N   9.40852415360432      0.55126525531933     -0.02120165135010
  C   9.30579651451385     -0.70116420132009     -0.39038981781855
  N   8.02260878917742     -1.12588581931610     -0.37289511730554
  H   1.29691890016665     -1.98883269985876     -0.72784018272931
  H   5.54564196787405     -4.39119790302079      0.69667048695591
  H   4.79884497277665     -3.16705335363758      1.78874009466410
  H   5.62188529957334      2.03238248800284      0.27295272370656
  H   3.18540184513373      2.05076720364540      0.56004117217693
  H   7.92416064445468      1.95721881551011      0.57955995403957
  H   10.12291834813571     -1.34381352210914     -0.67576770911732
  H   7.67739066152041     -2.04620505897239     -0.58875888888029
