22
Coordinates from ORCA-job 9392optt
  Br  0.74846171921039     -0.48722509782219     -0.17353155296315
  C   2.60416949869856     -0.29435347466845     -0.12021631153694
  C   3.17095161744354      0.91382188557991     -0.05815456861618
  C   2.62106188604757      2.27586887766823     -0.10531519224155
  N   2.94437209282396      2.96227655164341      0.91432023369798
  O   3.49752442655738      4.17386906795770      0.43976669545428
  C   4.69603736767199      3.84501420163373     -0.15766907049114
  O   5.30385500329789      4.69295284887179     -0.71585153410536
  C   5.27974582293673      2.38547466492087     -0.05310957315048
  N   6.59901013750775      2.46665379218035     -0.03202663919896
  C   7.32885027455283      1.35336796414105     -0.00864085261131
  C   6.79711240110068      0.08209468476363     -0.04440554452790
  C   5.41155154982433     -0.03769619213855     -0.07811233532249
  N   4.79705316635477     -1.26411802168241     -0.11458066466952
  C   3.42536419086752     -1.51821393154900     -0.14819497688211
  N   2.89547835971098     -2.66879810890374     -0.19895540218176
  C   4.62120717537687      1.11911029670611     -0.05506932536023
  H   2.51772358347252      2.74179941816574     -1.08804382537553
  H   8.40295918032625      1.49197991960172      0.03356063771015
  H   7.43510629110555     -0.79249918195024     -0.04266563335427
  H   5.39474190263255     -2.07724129949160     -0.12375672363334
  H   3.58166235247937     -3.42013886562806     -0.21534784064022
