21
Coordinates from ORCA-job 9394optt
  Br  1.19563892315154      1.13507180512460      1.49398837444699
  C   2.80949887233023      0.49966616543213      0.77566699357506
  C   2.92476442568837     -0.79217186428750      0.42564085284618
  C   2.07581941143483     -1.97972430578821      0.58044544019338
  N   1.85023065164089     -2.54680792927311     -0.53515881704573
  O   2.20823819637260     -3.91410971530538     -0.40282092144397
  C   3.58017539323187     -3.94079595120475     -0.36327595152855
  O   4.13523231994359     -4.99704167352475     -0.34124901561608
  C   4.40619959666009     -2.66285134566945     -0.39099125113081
  C   4.19142970154678     -1.35159816604455     -0.08332849022704
  C   5.25490921647656     -0.35433736662385     -0.17418236961774
  C   6.53341922296732     -0.33053207250670     -0.57349593918120
  C   7.02552708059808      1.05090270442631     -0.43006243790258
  N   8.12406180405466      1.60314212798011     -0.66227721726023
  O   5.98298503468801      1.81640781321519      0.06650112677045
  C   4.91511108558130      1.02016258945020      0.22516083982145
  N   3.80316467426817      1.45537758447565      0.65797956575245
  H   2.18500085666884     -2.56805643381625      1.49453989549233
  H   5.41697235860443     -2.93496347346727     -0.67190503811498
  H   7.14924412641451     -1.13420456347792     -0.94728591617008
  H   8.80237704767728      0.93546407088550     -1.01988972365932
