20
Coordinates from ORCA-job 9396optt
  Br  1.32466413605404      0.04943239567064      1.02391551107576
  C   3.13594638426964      0.04233281532231      0.49543192070131
  C   3.77374039583058     -1.10395369896643      0.12630250687272
  C   3.08010329319439     -2.39577625287445     -0.13507064337616
  N   2.00517726154322     -2.58989381871254     -0.74386634060330
  O   3.73504951502660     -3.50075286752053      0.32724860974695
  C   5.09973705900978     -3.58617448145213      0.33229795423382
  O   5.59535886140864     -4.60577864642946      0.69556056408984
  C   5.84075645209967     -2.38127330990830     -0.08715475659864
  C   7.27704471714664     -2.45539013022084     -0.38409663310638
  O   7.89431504953056     -1.44372216011528     -0.67300939911716
  C   7.97081820740177     -3.72788197542865     -0.37193471750541
  C   8.63197896733308     -4.72490530464537     -0.40523842547152
  C   5.20594175648892     -1.16329629942234     -0.06659897620748
  S   6.09740489014623      0.32591556535346     -0.26436812227995
  C   4.89332695090220      1.46860366812580      0.18584596475549
  N   3.68044978371145      1.28796854768775      0.55175001881601
  H   1.56144327365592     -1.71966567845045     -1.02263937125228
  H   9.20023167316155     -5.62504565988680     -0.42533228943108
  H   5.27051137208506      2.48825729187360      0.15695662465744
