24
Coordinates from ORCA-job 93optt
  C   -3.91183985258599      0.06565258129000     -0.06726949918138
  C   -3.29782940338831      1.33963286804207     -0.06364557901667
  C   -1.93701556580847      1.44217446916328     -0.04242244421911
  C   -1.12063209906816      0.28198775951684     -0.02200955640382
  C   -1.73779376196938     -0.99584962256204     -0.02526125835771
  C   -3.14885736650709     -1.07183258500569     -0.04917427729317
  C   0.29047444135511      0.35795074240220      0.00184361770290
  C   1.05340203774134     -0.77954341379754      0.02004091798862
  C   0.43942197450330     -2.05352385235177      0.01652177486471
  C   -0.92138042116909     -2.15604215689741     -0.00481034403986
  H   -3.93167264507771      2.21596200009168     -0.07764590144204
  H   -1.45649553171086      2.41331141665504     -0.04029746196058
  H   -3.64102658879197     -2.03660113959812     -0.05292182042193
  H   0.78267979720436      1.32269669915664      0.00554042501313
  H   1.07325078945839     -2.92985707822848      0.03063003907185
  H   -1.40193162632991     -3.12716602048219     -0.00691962843930
  C   2.54581365958548     -0.67171115688876      0.04186098090191
  C   -5.40427144180561     -0.04224614817696     -0.08914948491971
  O   -5.93927660111994     -1.18848472725548     -0.10999184882498
  Li  -7.48420322515342     -0.20148830680061     -0.10940849857674
  O   -6.10794039482819      1.01048072302951     -0.08493590332907
  O   3.24946208093400     -1.72445519761889      0.03775089402479
  O   3.08088633159613      0.47450427929055      0.06255396634105
  Li  4.62577541293602     -0.51255213297387      0.06212089051711
