20
Coordinates from ORCA-job 9404optt
  Br  1.03208370759945      0.10477967256557     -1.19628497735223
  C   2.78930630498700     -0.17810483590358     -0.65975440601183
  C   3.56820985280063      0.71692523132704     -0.05745204861993
  C   3.42776896455583      2.10857578037767      0.39034940845731
  N   2.51834197817777      2.97111553887302      0.36389709374354
  O   4.64910265306147      2.41049816079538      0.95371855639287
  N   5.53302502612625      1.33394304760783      0.89271492834384
  C   4.91939215803578      0.36987771045869      0.31583284939887
  C   5.37578946776677     -0.96829177442282      0.01809278615226
  C   4.49600047808351     -1.79585569073360     -0.58527824999437
  O   3.22319351761407     -1.42396391820183     -0.94324428106175
  C   4.78687471639360     -3.15091295476682     -1.05677474325067
  N   5.62139150087548     -3.98152345202874     -0.57168932560553
  C   6.35629458212902     -3.69867601892209      0.57898470409073
  N   6.90336286188989     -2.61293973158726      0.93246161696296
  C   6.78832327586036     -1.42962498435071      0.20306469608893
  O   7.72123177446676     -0.79721556027992     -0.19116535106132
  H   1.67682949310178      2.61303160217456     -0.07771267920491
  H   4.19295272873711     -3.46806144565945     -1.91287386969241
  H   6.48852495773744     -4.57057637732295      1.21411329222365
