20
Coordinates from ORCA-job 9405optt
  Br  0.98760674948529      0.18464085012321     -0.27023816933611
  C   2.86641899094766      0.13153862191555     -0.08683313793946
  C   3.56823553777052      1.29427137858273     -0.04250375514635
  C   3.00398695937704      2.62249997840873     -0.06561437693772
  N   3.69676598996003      3.69385731596186     -0.01081639230811
  O   5.05719499045793      3.59653352632257      0.06791372346228
  N   5.70733215416544      2.40951619726835      0.07284899430034
  C   5.02456348844604      1.32251415741973      0.02343673115570
  C   5.69763083417357      0.03272467664300      0.01461776955604
  N   6.96334967818795     -0.22761134966651      0.05448446208201
  N   7.07805019841408     -1.58453408733420      0.03068047851579
  C   5.88238816322153     -2.27687249587631     -0.00070512498135
  O   5.73756734334350     -3.47537057669094     -0.00247337533354
  C   4.89210879819297     -1.16290968114703     -0.03261805030008
  C   3.54137943514822     -1.15587407027062     -0.06326852304357
  C   2.83181423466889     -2.48234087551060     -0.00231602078568
  O   1.82114248874577     -2.64299662187691      0.61757370279278
  H   1.93509514155857      2.77761579940037     -0.12922034043071
  H   7.99248019257927     -2.00265685102513      0.07409632748107
  H   3.34488863115552     -3.30354589264783     -0.52304492280333
