23
Coordinates from ORCA-job 9406optt
  Br  0.93333835563918      0.15167074362946      0.11034422222328
  C   2.81571542774141      0.00530783768098      0.06083830172314
  C   3.41934507667586     -1.19290125558376      0.02743649324358
  C   2.95611139216402     -2.59636585971105      0.00972445500992
  N   1.82973697251903     -3.15792250766397      0.01080950525288
  O   4.09080184128051     -3.35261984941808     -0.01672423931306
  N   5.24678313428653     -2.54962769025297     -0.02226399554541
  C   4.86379915808510     -1.32172945244967      0.00202921282761
  C   5.69185085818471     -0.14851447912532      0.00872574946059
  C   7.10745168183988     -0.20758306127661     -0.00815106067945
  C   8.30922280678103     -0.18903713168181     -0.02075068623030
  C   5.04753156014398      1.06535869163486      0.03512291966938
  N   5.77847699827526      2.23304498266749      0.03892014658425
  C   5.24036483825058      3.46895184335863      0.06230411011315
  C   3.89227637015329      3.63809978857509      0.08572862801836
  C   3.07506063527589      2.48579190040339      0.08602588561905
  C   3.60576517450792      1.22292551187352      0.06174651025234
  H   1.07892221329550     -2.47712143418366      0.02987103390861
  H   9.37276468874022     -0.21631819875693     -0.03312353947456
  H   6.78552783735274      2.11964497665507      0.02183283087340
  H   5.94292103445127      4.28967140068717      0.06152956434301
  H   3.46707930189714      4.62850232704417      0.10500184291044
  H   2.00015264245891      2.60177091589399      0.10602210920979
