24
Coordinates from ORCA-job 9409optt
  Br  1.13929522595677      0.34453848356542      0.13909888855953
  C   3.00144775069679      0.06391063358750      0.02344096949253
  C   3.51931748987014     -1.17698734589827     -0.02944278777256
  C   2.79711394605504     -2.42851619211857     -0.02486616301537
  N   3.35915484524134     -3.56851430230147     -0.07605150332955
  O   4.74098813765052     -3.61662186815087     -0.13567246745312
  N   5.51792984077180     -2.50107339444832     -0.14791189666357
  C   4.96053953860512     -1.34553718492706     -0.10123874902353
  C   5.79772926642409     -0.11907861465036     -0.11271326109146
  C   5.02161887340361      1.13558492546431     -0.06980200045963
  N   3.74878926582789      1.22572962997288     -0.00286359540944
  N   7.06260784906472      0.00362878360977     -0.14211650000465
  C   7.95495740834449     -1.12750085118103     -0.16185998570028
  C   9.39313958118699     -0.65525094204168     -0.14234821159020
  O   9.73828709410990      0.02475834360471     -1.35644130072592
  C   10.02981270647550     -0.75030236333625     -2.39904274906248
  O   10.01763212950751     -1.94616314841988     -2.40369445522636
  H   1.71523297392830     -2.45139827711700      0.02082801224193
  H   5.61101120900817      2.04785971998429     -0.09112585790213
  H   7.76999431281167     -1.75574335122434     -1.03915190972225
  H   7.76864433188738     -1.77583327250214      0.70216762144537
  H   10.06686494122461     -1.49969092574319     -0.00109781203043
  H   9.54166043877014      0.08204800557415      0.64333713975003
  H   10.29023084317739     -0.12684649130260     -3.26243142530643
