22
Coordinates from ORCA-job 9410optt
  Br  1.11494850945954      0.28341277868699      0.04799483839778
  C   2.96496566343501      0.01674017086603      0.01534782912659
  C   3.56432818856098     -1.17067213558598      0.03105009509676
  C   3.14261953692941     -2.57657565759976      0.06418373768409
  N   2.03341595736851     -3.17033013477806      0.08973422065297
  O   4.31149925046283     -3.28778304641225      0.06146927797965
  N   5.44190826075088     -2.43997665540542      0.02951495832030
  C   5.00753945586110     -1.23154530865761      0.01197615464347
  C   5.73551791565348      0.00066387507625     -0.02477331010474
  C   5.03588363889188      1.15320173103034     -0.05467269071149
  O   3.64650140286223      1.16981283945739     -0.02345723382549
  N   5.61178019986149      2.38418446392940     -0.06063291217904
  C   5.06642464509577      3.42456243466987     -0.56133679886669
  N   5.59832033455102      4.67423450396897     -0.51696180872995
  C   4.76933805380590      5.55665976823606     -1.19728733007904
  C   3.74263945441392      4.83373696360244     -1.63882657850404
  O   3.91100032524003      3.52001801262728     -1.25589719995472
  H   1.26753171587566     -2.50378472495070      0.08827076448392
  H   6.81278880038319      0.03806631161790     -0.03802888229508
  H   6.47197232156810      4.87190265422220     -0.06142094378094
  H   4.98627420756782      6.60391362394128     -1.29756543747626
  H   2.86080216140114      5.07055753145741     -2.20268074987807
