18
Coordinates from ORCA-job 9411optt
  Br  1.30746060910434     -0.31530866361234     -0.21210539984696
  C   3.15416572193459     -0.03708180051246     -0.14051426445983
  C   3.75035442208090      1.16036676019709     -0.06463492048260
  C   3.33240679571987      2.55992636367874      0.02892386389447
  N   2.23081980208276      3.16633584193581      0.04261543373150
  O   4.51150269618232      3.26040087419416      0.12468675231822
  N   5.63192675113517      2.41749887532712      0.09837118663807
  C   5.18638294574358      1.22030404440561     -0.01547951793813
  C   5.90199367143054     -0.04386442722002     -0.06065055879160
  N   5.26616714289824     -1.16313098213662     -0.12852856900433
  N   3.92775061339878     -1.16018871007174     -0.16388626918812
  C   7.37298958017596     -0.11683468672505     -0.02392822262731
  N   8.02511959990768     -1.08218325477302      0.57691187156955
  S   9.58509235925219     -0.78204126271039      0.33358230183627
  N   9.37059262231337      0.59417687125732     -0.54765241103796
  N   8.12182783440499      0.83832805663548     -0.65820057632460
  H   1.45304093700692      2.51884565622115     -0.03597643976588
  H   3.50540589522773     -2.07254955609086     -0.23153426052076
