19
Coordinates from ORCA-job 9413optt
  Br  0.88622046972526      0.32264938118538      0.02410588456601
  C   2.73907517892051      0.15759253704714      0.00326569918075
  C   3.39347381130874     -1.00196240589216     -0.00268720372479
  C   3.02608561331143     -2.42619754506632     -0.00088657223275
  N   1.94457503545113     -3.06310955567459      0.00258018039230
  O   4.22566899058584     -3.09127301078792     -0.00672688306512
  N   5.31529664164571     -2.20985672130901     -0.01401255623784
  C   4.83896578154469     -1.01979941184503     -0.01225852918184
  N   5.58426428255200      0.13255286786711     -0.01608924524118
  C   4.94347891087324      1.23432086300881     -0.01269123596332
  N   5.64314848598201      2.42532181926155     -0.01605608184330
  C   5.00548830917292      3.53145485886059     -0.01762510396931
  C   3.56144299995694      3.57493538073135     -0.01524678894044
  N   2.86378643363638      2.48800327976832     -0.00777635094567
  N   3.51224032823386      1.33725080678290     -0.00462177007182
  C   2.86757539395916      4.82951294913248     -0.02031109678283
  N   2.38303902705454      5.86804385850184     -0.02518478706814
  H   1.14463555644724     -2.43781905247865      0.00639435443595
  H   5.56953874963836      4.45937910090619     -0.02017191330665
