24
Coordinates from ORCA-job 9420optt
  Br  1.07938307724659      0.55307624051857     -1.78198048062160
  C   2.65656109002900      0.22331111679440     -0.81763629570573
  C   3.25345042897523      1.12890419501593     -0.04500104064478
  C   2.96568818538191      2.52661473811148      0.32071602050422
  N   2.09841358355222      3.37518189451412      0.00133811575972
  O   3.94353356361691      2.86403418568094      1.22683206757953
  N   4.83536055123464      1.81494374082802      1.43692337609627
  C   4.45120414581483      0.82724110418409      0.71557540775048
  N   5.14356258050902     -0.36331514235463      0.67306493186877
  C   4.72143478642964     -1.33641608675126     -0.02259814374045
  S   3.23037555311122     -1.41088812705604     -0.99817359404494
  C   5.56668074951050     -2.58123435747216     -0.11354656938607
  C   6.69672284028821     -2.66193305384447      0.91077768641464
  C   6.92153480302836     -4.16990718951251      1.07959471247242
  N   5.60550785372391     -4.71462450249244      0.79030561951186
  C   4.80003898273119     -3.89844090754604      0.07396184953193
  O   3.70428844559042     -4.15628660972307     -0.36550218640149
  H   1.44120086338426      3.00015359670142     -0.67435291950582
  H   5.95759550649764     -2.62457296754937     -1.13818390050064
  H   6.35571442886430     -2.22492922294490      1.84808830214936
  H   7.59285467705464     -2.13068472569108      0.60187262309512
  H   7.23832757119065     -4.42697833073694      2.08872683612963
  H   7.66599450255088     -4.54980746239562      0.37470839139242
  H   5.35357122968377     -5.68144212627843      0.92048919029515
