25
Coordinates from ORCA-job 9421optt
  Br  6.17221881570753      2.51618657999019      0.26229077234996
  C   5.01808858737039      1.04342803800723      0.15857944423022
  C   3.68189297084974      1.18465639541795      0.08650279644984
  C   2.66194833860256      2.23153414955467      0.05890266095219
  N   2.66496393529248      3.48657754401018      0.08419186280221
  O   1.45893615888693      1.55131679227100     -0.01385086704703
  N   1.64850555462918      0.15609805983460     -0.04266068731372
  C   2.90682451803716     -0.00962036128086      0.01460714403229
  O   3.50424527765956     -1.23283431128902      0.00749008305629
  C   4.85094734642658     -1.22617147667964      0.08181117429868
  N   5.40231975504463     -2.45053244054305      0.06674316073034
  C   4.82501712896458     -3.72035880231107     -0.04117119872834
  N   5.60429485208683     -4.70995592360577     -0.13884622681383
  C   4.80295046062417     -5.92498063550137     -0.27878080086027
  C   3.34987092179038     -5.53371185223699      0.05473599406772
  C   3.34326402187630     -4.00299284701756     -0.07232221575291
  N   5.61149203404247     -0.18122547121364      0.15730212687194
  H   3.61347917502363      3.84659455536972      0.13740319126737
  H   6.41425140821617     -2.44986351882541      0.08763635415917
  H   5.19642721778539     -6.69903472265482      0.37905354597796
  H   4.91213368804030     -6.28808877262511     -1.30366013599530
  H   3.11085360424455     -5.81873462752412      1.07858646492187
  H   2.62458295922858     -6.01001052789333     -0.60093821910973
  H   2.80498587385971     -3.50039140080879      0.72770503918972
  H   2.91950539571015     -3.64888442244496     -1.01431146373663
