18
Coordinates from ORCA-job 942optt
  N   2.12457115381790     -0.40429778702464     -1.37500782756196
  C   2.38088091483120      0.02272873977188     -0.00225651973383
  C   3.22156836740039      1.27915506074252      0.00498340781611
  C   2.58180532533822      2.56305858705554     -0.57080068810203
  C   3.15774972934213      3.35627262170840      0.62048621993865
  O   4.33481899457756      4.07871677165145      0.32427583528301
  C   3.39975327639735      2.01825732047694      1.35222444718843
  H   1.48704278944651     -1.18999518960272     -1.40322546475114
  H   2.98376184513502     -0.70125243730466     -1.82302375233448
  H   2.86558901361512     -0.74481583678679      0.61707440814789
  H   1.41725663873143      0.24815412524808      0.46378846419167
  H   4.18802670558811      1.07031994996346     -0.46465859611296
  H   1.49278468016478      2.50177018567262     -0.54458870271043
  H   2.89248455767221      2.89883511963477     -1.55909863025458
  H   2.49555504746762      4.06836015417137      1.10832637094079
  H   4.93649672280884      3.51279471193944     -0.17012161992139
  H   4.35307827560938      1.92814616202310      1.87210335679278
  H   2.58977596205620      1.77979174065923      2.04451929118347
