20
Coordinates from ORCA-job 9432optt
  Br  7.13107222134933     -3.12678233609823      1.26149594592142
  C   7.63172666346311     -1.62299136695577      0.14602302718441
  C   6.87485825154084     -0.38296350980150      0.49600185205267
  C   5.57781968392885     -0.07763061720903     -0.07398788305552
  N   5.23698548105692     -0.54983078637596     -1.20926700549665
  S   6.17532086797948     -1.51649705563028     -2.19702046683753
  C   7.61620999015360     -2.01745622863752     -1.29260561213369
  N   8.53792007649040     -2.65117307166316     -1.87584419732027
  C   9.56197435987974     -3.32133671906756     -1.17265824217540
  O   9.44962974558990     -4.48508132071857     -0.91001761350295
  C   10.87439062873664     -2.63471419578937     -0.90113505627827
  C   11.25334327241390     -2.03416611830670      0.22452517806787
  S   10.22728237655882     -1.53723808594287      1.57383450524613
  C   8.90505955286490     -0.82149530571890      0.59723472572605
  C   7.91905534708678      0.22203595310038      1.07870975174080
  H   4.87670614581381      0.59127482156311      0.41631353826475
  H   11.62580279763459     -2.82039392077220     -1.66221505823711
  H   12.29712125819230     -1.77690911218079      0.35849031790917
  H   9.39617754100254     -0.45133129854465     -0.30472725502058
  H   8.06954373826345      1.18368027474957      1.54884954794471
