19
Coordinates from ORCA-job 9435optt
  Br  0.85354667545990      0.01507816408754     -0.03336942571904
  C   2.72726954604137      0.02285317309468     -0.03356694896802
  C   3.47297623128519      1.24526663609761     -0.03040201845074
  C   2.94851218900842      2.57890639370863     -0.02676694158732
  N   3.81401379882835      3.54608937826543     -0.02357883256806
  S   5.36102871282992      2.97067150111646     -0.02496768145320
  C   4.89957717847974      1.31968963333819     -0.02981861371495
  C   5.63084350730696      0.11771932187058     -0.03263488950489
  C   6.99951890355513     -0.55024851051050     -0.03311489215082
  N   8.16166249762725     -0.08096389732551     -0.03124132454629
  N   6.80869293978677     -2.02117243762497     -0.03652282430724
  C   5.53944795517639     -2.17373474017680     -0.03791650743850
  C   4.42756519261108     -3.22388599270498     -0.04069214065968
  O   4.42812605817834     -4.39810873915463     -0.04289855958035
  O   3.20488542165303     -2.48672443826789     -0.03970330896522
  C   3.46890443762278     -1.13130004715763     -0.03659526828403
  C   4.82188154698926     -0.95481357330960     -0.03585223514882
  H   1.89143140584691      2.81311694934916     -0.02630349521547
  H   8.15111580171318      0.93956122530424     -0.02905409173737
