19
Coordinates from ORCA-job 9436optt
  Br  1.59631055280037      0.16060662020278     -0.48406591432534
  C   3.46380328029657      0.14759894416964     -0.20291014412504
  C   4.11956240924016     -1.05999769473769     -0.08330227176186
  C   3.62054413473550     -2.41314321759536     -0.14330978299840
  N   4.49622900770039     -3.34571484370575      0.01569928895394
  S   6.02342398026935     -2.72986039315554      0.25610920244892
  C   5.52423585575890     -1.07982639508369      0.14587012770565
  C   6.26786600877183      0.07344546688085      0.25153381288632
  C   5.59710900188675      1.29408487351683      0.12122085112520
  C   4.19024362996702      1.34400738134113     -0.11255296941151
  C   3.63107428107187      2.64528761265957     -0.24019701819496
  N   4.33682067307037      3.73249600214173     -0.14557691961150
  C   5.66719978925658      3.56122909164163      0.09076517703118
  N   6.31785925280290      2.44748365726286      0.22207234407744
  C   6.43481355805273      4.78913997662612      0.20418255085450
  N   7.03600372040419      5.75951219536354      0.29330075936958
  H   2.58308240782497     -2.67105744638932     -0.31414677188367
  H   7.33345642514896      0.07922102572597      0.43365178834451
  H   2.56936203094054      2.76048714313468     -0.42934411048494
