22
Coordinates from ORCA-job 9437optt
  Br  5.28825994915547     -0.14268678250063      2.88634759100024
  C   5.33474315129941     -0.22804827851083      0.99826294754728
  C   4.50454269387403     -1.14662477527606      0.34616565250354
  C   3.59191075210374     -2.12432144084369      0.87003019085725
  N   2.96002296022706     -2.83517591271818     -0.01151826325101
  S   3.38327172361904     -2.41466383847296     -1.55141932666311
  C   4.49305371444787     -1.19614618631383     -1.05394798555808
  C   5.28130087530979     -0.32714525323981     -1.80449402073473
  C   6.10349558260802      0.55315095360269     -1.14194631745346
  C   6.15877548171160      0.62095509915728      0.27345166113172
  N   6.91868292907173      1.59014967882703      0.92745876985678
  C   8.19035363424529      2.05175523830385      0.65908263817893
  N   8.78294706157937      2.74957574026312      1.53891719320321
  C   8.83333004806596      1.70992621142027     -0.64469922714737
  N   8.28751283718395      1.50618608963856     -1.76001742849224
  C   6.89859785427409      1.50921811892197     -1.97142543093080
  O   6.40687632526758      2.15809133944128     -2.85007852153964
  H   3.41321567229486     -2.29424600876477      1.92402575622769
  H   5.25293871165398     -0.31125361671234     -2.88593003011290
  H   6.64306491085541      1.79676948069633      1.87972281352612
  H   9.70816948822910      3.03314042785478      1.22917528967265
  H   9.92193364292254      1.67539371522594     -0.59716395182207
