30
Coordinates from ORCA-job 9439optt
  Br  5.97410954192298      2.39646495608452     -0.75942473727672
  C   4.98366548288852      1.42034879299920      0.52693787136994
  C   5.69870377127803      0.60378604969691      1.36434964323238
  C   7.10606252938742      0.29616108622048      1.42651770714196
  N   7.46431267721407     -0.54374452043242      2.33236108331885
  S   6.15249661308304     -1.06082111581952      3.24227617022592
  C   4.99281381037601     -0.10795084099348      2.37436853859285
  C   3.65037550425040      0.02808941795035      2.54356335253045
  C   2.90001019785147      0.89367484405932      1.68869405721503
  O   1.70774120843740      1.10666084935361      1.78738750978280
  N   3.64992484956108      1.55045857014510      0.62152851588030
  C   2.81338004827755      2.37128267708696     -0.29424315998861
  C   2.96396591229499      3.87014475191740     -0.03693719662389
  C   1.92151666502986      4.63194913170259     -0.86327535194390
  C   1.86238015752371      4.16459025601038     -2.33790773082417
  C   2.99742997139978      3.20233162369970     -2.68441371727597
  C   2.94014085151397      1.97134104527532     -1.78284907504926
  H   7.85061969770329      0.71733677184295      0.76259475488158
  H   3.09140492198590     -0.47971064489769      3.31506682245401
  H   1.80790320445379      2.12101463461567      0.02983698275216
  H   3.96559606017444      4.22006540909146     -0.28323049192262
  H   2.80635647389009      4.05786881078709      1.02658093080969
  H   2.14857455789399      5.69711836450290     -0.81188768950341
  H   0.94272872524069      4.50263058559849     -0.39773279907840
  H   1.88335157283679      5.02490131588309     -3.00718227614721
  H   0.91435352164561      3.65341462537819     -2.52293447848910
  H   3.96046843461287      3.70643190888954     -2.56879638783869
  H   2.92708380995844      2.89394803021407     -3.72849551834233
  H   3.79999322477986      1.32733878276213     -1.95658535219660
  H   2.06053600253384      1.38087383037562     -2.04816797768704
