26
Coordinates from ORCA-job 9446optt
  Br  0.98959752966879      0.03139222254853     -0.24195033389823
  C   2.86029685236409      0.18768188712673     -0.12665531203850
  C   3.54801830412473      1.33970021807449     -0.00265061076254
  C   3.05018129937995      2.73468519916904      0.09210322879780
  N   1.89172649996525      3.24201424880464      0.11280708507087
  S   4.46282899019106      3.81253159006275      0.20232318874648
  C   5.59755830229330      2.48906244430180      0.14982301827424
  C   5.01286461360297      1.28332887747719      0.04796076276842
  C   5.65299983814722     -0.01854391452159     -0.02451272551028
  C   7.14510334245061     -0.09549695013609      0.02208538775916
  C   7.84209860482084      0.58604925580696     -1.15262319941464
  O   8.86621046847930      1.20751813588329     -1.02052190924623
  N   7.23458480894889      0.39548751337239     -2.37344112481600
  C   7.75506821380818      0.89032882600474     -3.56704384406859
  N   7.22998845268300      0.80028979603504     -4.71004594013705
  C   4.87832696939741     -1.10932338079171     -0.13967232310652
  N   3.49784954177055     -1.02226862987682     -0.18889452030370
  H   1.15513368520425      2.54752806316611      0.05222579726646
  H   6.65770432095693      2.69057801581288      0.19658908737587
  H   7.47693728820554     -1.13644000804234      0.03446566258400
  H   7.53049196848959      0.38917715990638      0.92040352423612
  H   6.33581524870959     -0.06579511288795     -2.38950432647000
  H   8.71275150308111      1.38324522104503     -3.42960874104874
  H   6.33022913228052      0.31824125018552     -4.69041061041273
  H   5.27845798206526     -2.11243987758095     -0.19197984381298
  H   2.94317623891102     -1.85653205094608     -0.27627137783269
