27
Coordinates from ORCA-job 9447optt
  Br  1.11576894966270      0.10156731141058     -0.74980827376050
  C   2.92159257969714      0.05429548498859     -0.18244251097280
  C   3.70277356718854      1.16180696147112     -0.22418959562135
  C   3.34835061917724      2.56249890374140     -0.57825658858085
  N   2.27517163333450      3.14978958341869     -0.90853493587849
  S   4.82183875155669      3.55149550608043     -0.44454848348576
  C   5.80687788777118      2.19828174980146      0.03674295656045
  C   5.12503886487334      1.04461229293248      0.11635820078034
  C   5.61062014208644     -0.27214972241169      0.43846614789629
  C   4.75960047892645     -1.30187106396335      0.48155087641784
  N   3.39144550265842     -1.17017110855165      0.22990878333299
  C   2.59033042947273     -2.39693597833577      0.28966168549685
  C   2.85466403716032     -3.34167852107723     -0.90745005710753
  C   3.24238708730472     -4.66554798589120     -0.24044974740331
  O   3.78472765552867     -4.29642591230683      1.01726842120216
  C   2.93819660425275     -3.27797437279451      1.50469440643388
  H   1.48026256634839      2.52523532590832     -0.95703652014287
  H   6.86119584755892      2.33173082278715      0.22001193970052
  H   6.65937505787283     -0.43960252645083      0.63893913884733
  H   5.07664722599317     -2.31050456749621      0.70701607357572
  H   1.54992575857160     -2.10676285955184      0.34699903678957
  H   3.68352791715767     -2.95053467673989     -1.49699027742525
  H   1.98713919179042     -3.43153631379162     -1.55836007036378
  H   3.99874318450737     -5.22633090982513     -0.78462481254003
  H   2.36377832826064     -5.30339222296273     -0.08885578465584
  H   3.44776447364789     -2.73942914337870      2.30153205454783
  H   2.01625565763922     -3.71746605701104      1.90239793635660
