22
Coordinates from ORCA-job 9450optt
  Br  1.11941749842190     -0.75284936933832     -0.40581539132570
  C   2.97799890070370     -0.49158899486649     -0.20189106713624
  C   3.50339546743371      0.74721951262749     -0.17162102124118
  C   2.86331199626192      2.09363636154514     -0.27680439448172
  N   1.67345093859609      2.47855134069217     -0.41064029913582
  S   4.13883161242672      3.34777970477359     -0.17299802162560
  C   5.37490265652579      2.15787498677311      0.00085465932841
  C   4.93612516736070      0.88212792389538     -0.01172421685594
  N   5.76482452021836     -0.20270140118962      0.12334068605791
  C   5.26391407983238     -1.36678693401387      0.09735126811368
  O   6.22805439755803     -2.32804649151634      0.26288975215326
  C   6.18577421480310     -3.67164997452439      0.27762735803888
  N   5.26861570764000     -4.51913900128762      0.15408174172614
  C   3.90661956475198     -4.25881544256617     -0.04962425005915
  N   3.09497398103771     -5.23130375665082     -0.16908015760521
  C   3.30336008304439     -2.92517200724823     -0.13713627339580
  C   3.83444545058465     -1.68870779944179     -0.07852704924607
  H   1.01380128227559      1.70721829140234     -0.45713788602225
  H   6.41062305685089      2.44249842304454      0.11032259552786
  H   7.20196767745263     -4.02041500894848      0.43369438681741
  H   3.61329796213333     -6.10723172523955     -0.09177360753473
  H   2.23629378408634     -3.01149863792205     -0.27638881209817
