24
Coordinates from ORCA-job 9452optt
  Br  1.35288544293450     -0.05117475380918     -1.19705540201612
  C   2.97006071755058     -0.00078672546953     -0.22431451715401
  C   3.64637474811715      1.12363191539097      0.02780088192239
  C   3.29393720200204      2.55312646292647     -0.19642481779231
  N   2.32492452650433      3.12360222814125     -0.76684186201583
  S   4.54505301932232      3.55554157185659      0.58949798921623
  C   5.51278996526593      2.16493243623781      0.99716615379600
  C   4.95416433277114      0.99196883671583      0.66625532611528
  N   5.57391150199436     -0.24551187022461      0.73010187536932
  C   4.90598623406106     -1.29112365983159      0.46223271935332
  C   5.56425355853018     -2.60707955346273      0.35912647812730
  C   7.02547349967577     -2.62213218514906     -0.01884863107038
  C   6.62826613796467     -2.93547319892981      1.37681413349799
  N   3.49280826483061     -1.24364703074633      0.18488626849684
  C   2.63994302980872     -2.24831725506234      0.66036793292645
  O   3.00002850484006     -3.23013569448812      1.24286117294790
  H   1.67222903142307      2.46727032355008     -1.18433350810601
  H   6.49648406683274      2.28742329363768      1.42286372753219
  H   4.95095246907968     -3.42161831424488      0.01583048418215
  H   7.47817724778975     -1.65909862099929     -0.20374669221542
  H   7.34323674992418     -3.43200051418929     -0.65948249681619
  H   6.80598419749042     -2.17407124009254      2.12308711555743
  H   6.67127769957400     -3.95837279442944      1.72016347601536
  H   1.58779785171267     -2.03295365732792      0.44899219213012
