21
Coordinates from ORCA-job 9454optt
  Br  1.08329032204519     -0.24509828410270      0.43622320296503
  C   2.92214772172167      0.03637282666878      0.25114090977782
  C   3.54519649653406      1.20742224644020      0.13122874929874
  C   3.02249494159456      2.59422190053020      0.10251496050224
  N   1.85689197624136      3.07135564521144      0.19232622917220
  S   4.41139236315646      3.69269943077429     -0.09831065513920
  C   5.56237862043425      2.37521079271689     -0.12744117702714
  C   5.00214145110363      1.16683035477910     -0.00160332953406
  N   5.66871213394013     -0.05221998172622      0.01177629183753
  C   4.97927566265490     -1.10309926440355      0.12271448880510
  O   3.59034913916002     -1.14056727193139      0.25506596468116
  N   5.52793768739020     -2.35548303781218      0.21384236950877
  C   5.05975382949027     -3.33894220873421     -0.41477631268153
  O   5.52481698853162     -4.58845609326587     -0.24404529789939
  C   4.82333520348908     -5.40403522797644     -1.10354226801017
  C   3.95931842353661     -4.66299683398448     -1.77451104864856
  O   4.09414634045050     -3.35484080680172     -1.35467774413045
  H   1.15032322811152      2.34956137220979      0.30447622350286
  H   6.61722378394977      2.56897348237886     -0.23889935761530
  H   5.06450663267716     -6.45009743745642     -1.10435245906414
  H   3.22336705378698     -4.86981160351438     -2.52814974030149
