19
Coordinates from ORCA-job 9458optt
  Br  1.10731421139105      0.20329379766607      0.01764186027801
  C   2.97558077559489     -0.04280832518580     -0.01805861751587
  C   3.60932978158548     -1.22281792406406      0.07425831449402
  C   3.01701314110296     -2.58171364127667      0.22862281349819
  N   1.83485626565911     -3.01476028330057      0.29318728320955
  S   4.34835384928188     -3.76371346010760      0.32634932226505
  C   5.57289081910486     -2.53017589122459      0.17432654712917
  C   6.98367799538919     -2.97465568606411      0.21232268288086
  C   7.65029677309237     -3.45651941108216     -1.00615636966045
  O   7.94494936972920     -2.18562345842783     -0.45521429598248
  C   5.07672096981385     -1.28244405486191      0.05257710917301
  C   5.86672302053252     -0.06723817533727     -0.05257198831869
  N   5.40946953582203      1.12007401602311     -0.15139044150801
  S   3.79045963017278      1.48530091779606     -0.17741794523267
  H   1.13829602510701     -2.28009423774123      0.22760504892368
  H   7.31744531814234     -3.38387574632449      1.16273647142957
  H   7.09672515278671     -3.43643632108594     -1.93798872440429
  H   8.44160016566174     -4.19137920627368     -0.92002882697316
  H   6.94729720002995     -0.16441290912730     -0.05080024368550
