24
Coordinates from ORCA-job 9461optt
  Br  0.95574771291882     -0.42199879515768      0.15517648018587
  C   2.79845495008617     -0.15391009053083     -0.10593431576163
  C   3.44866383947461      0.98777910313056      0.17935535352906
  C   2.97216903116369      2.28331942287317      0.72870148882904
  N   1.83628983498147      2.66754889180693      1.12392461332239
  S   4.34379486886252      3.41420779655352      0.79725822604207
  C   5.47178037486942      2.22784231321200      0.14963997415732
  C   6.91612986027519      2.57351098331688     -0.02193152517632
  C   7.60835455648753      2.83277360562840      1.28358744026885
  C   8.23269865947492      3.96511776709441      1.70359065176875
  N   8.77783745400867      3.92553911076965      2.95965440238754
  C   8.56876923625723      2.77182492060080      3.50271705108486
  S   7.69369865499180      1.65470998121378      2.53010297699225
  C   4.87750768002213      1.05782037398554     -0.09553538410752
  O   5.55693252640056     -0.04085382874446     -0.57051883702754
  C   4.85077332679938     -1.15277469320140     -0.84832723738704
  C   3.53447212117759     -1.27462716888900     -0.65498573045469
  H   1.13096067335191      1.94077231648280      1.04787177013701
  H   7.01197822796634      3.47348044126724     -0.63539915311371
  H   7.40586377175327      1.75976692816162     -0.55970379485808
  H   8.31295424839463      4.86825883194662      1.11446233843576
  H   8.90228139269313      2.50041890612992      4.49382591783837
  H   5.47975156913917     -1.93763529385568     -1.24228522755325
  H   3.03413542844980     -2.19789182379481     -0.89924747953941
