18
Coordinates from ORCA-job 9464optt
  Br  1.30600904341341     -0.33067333658398     -0.30622380000647
  C   3.14969118724611      0.02285539560890     -0.21933893994375
  C   3.67846574851852      1.26433107845490     -0.11833482932890
  C   2.96670849330699      2.58155435723521     -0.03976521259179
  N   1.74710287590383      2.89257340847555     -0.04376971455610
  S   4.15673780530136      3.89766222825923      0.09100282627852
  C   5.48818970610245      2.76072017803387      0.04727706647780
  C   6.83279775118287      3.19958786429237      0.11856998274489
  N   7.93094898761866      3.53275982765015      0.17475072190600
  C   5.11709101126899      1.46839680302095     -0.06143750469918
  S   6.27799719343899      0.16469046873676     -0.13976754936439
  C   5.15339812518197     -1.15192890829929     -0.24082259910310
  N   3.88274737926884     -1.13975996127649     -0.26836972760700
  C   5.83592950279308     -2.49393615547507     -0.30573868969097
  O   7.02484740510189     -2.60362111718999     -0.30948339280792
  C   4.93967444862418     -3.66019349763685     -0.36157488882714
  N   4.28090911524203     -4.59577388827123     -0.40279828294148
  H   1.12475422048579      2.09475525496501     -0.12117546593904
