20
Coordinates from ORCA-job 9476optt
  Br  1.35579925128927      0.04756540734380      1.48167074378887
  C   3.03817697862062      0.09438249445673      0.68170156738596
  C   3.60050292836101      1.20662021473961      0.18912249532651
  C   4.99409867829763      1.07707076852761     -0.27798054822883
  N   5.94870134577887      1.90437958094825     -0.17070137450700
  S   6.08740205413831      3.32725073665384      0.63860175361868
  C   4.50811736223542      4.04688037727011      1.09686993411271
  O   4.56209995944904      4.95321481754654      1.87935951326424
  C   3.27048582549877      3.69354642168347      0.37541980863141
  C   2.86609153184337      2.48158675999316     -0.02016807064271
  C   1.64709573181818      2.37312090293099     -0.76276069455972
  C   0.65986156511345      2.29431945308825     -1.43712296097807
  C   5.34511184469152     -0.25101365631062     -0.87558296582315
  N   6.13950365195100     -0.47930254428299     -1.80970348922885
  O   4.75536243955242     -1.33099476594815     -0.26578975704150
  C   3.74425789730806     -1.22631158274971      0.63554328598996
  O   3.42669491954669     -2.17289301076360      1.27606446624962
  H   2.62356499089308      4.54491179939232      0.19804754365283
  H   -0.22284626685648      2.22352476801075     -2.02839300665465
  H   6.54291731046969      0.39214105746963     -2.14819824435629
