21
Coordinates from ORCA-job 9480optt
  Br  1.48163570330934     -0.84410320252564     -0.06561315885146
  C   3.30076921370529     -0.37281652204621     -0.06763266940929
  C   3.76890059196162      0.90903456780838     -0.06724869706979
  C   2.99008349520064      2.17610239573508     -0.06512409408602
  N   1.75757640750608      2.46346426689782     -0.06385751353513
  S   4.18861359488135      3.48349929350765     -0.06468007874565
  N   5.54717250791109      2.49776669221604     -0.06730300595589
  C   5.22767242277522      1.25692821614290     -0.06861437506509
  C   6.11470089262898      0.11982632932585     -0.07132742630760
  C   5.48207119274199     -1.04447655061035     -0.07149257401861
  N   4.19458936928093     -1.41884261289418     -0.06972469206589
  C   4.25095831924943     -2.89442059290192     -0.07041885868847
  N   3.32206803014462     -3.72342742242203     -0.06884001956035
  N   5.64314090208080     -3.28284967472788     -0.07319758147661
  C   6.33236134633469     -2.20285813885993     -0.07366383837697
  C   7.70076074997366     -1.64153972691607     -0.07535698795494
  C   7.56590982499491     -0.29231818008838     -0.07389211007128
  H   1.15088951282711      1.65203290469570     -0.06438070909838
  H   2.40052431574930     -3.29601645809248     -0.06690229315232
  H   8.62345613025121     -2.19711607188170     -0.07720807542249
  H   8.38614547649170      0.41013048763736     -0.07452124108776
