20
Coordinates from ORCA-job 9484optt
  Br  0.74524515464565     -0.61224270770520     -0.72266523718230
  C   2.58342450082769     -0.30811468255560     -0.42211345347963
  C   3.44891410692017     -1.24668688899405     -0.00659482982345
  C   3.19691821259579     -2.68459206596402      0.30838278237156
  N   2.17242719327662     -3.42181874524265      0.28959796485772
  S   4.76760024333817     -3.35074474400552      0.79261995014226
  N   5.62322921215288     -1.92267413283522      0.60206345584702
  C   4.87574429684515     -0.95574782563781      0.20599885268467
  C   5.41757289967242      0.36700927952870     -0.00768178407451
  C   4.66867130497026      1.38940249507123     -0.40758617423591
  O   5.21756760051573      2.62761003396683     -0.65452284556880
  C   5.03958437705386      3.57688276274893      0.27848235638371
  N   5.44718486315625      4.78988107495733      0.06571716676555
  O   5.10117420834023      5.42565290620057      1.24408061950777
  C   4.52459873841542      4.52251064716160      2.01583266902243
  N   4.44878277283450      3.34835928411517      1.48716788112715
  S   2.95907382460161      1.34724692133788     -0.77523672169174
  H   1.33219175879635     -2.93547737642442     -0.00403119973518
  H   6.47249359493112      0.52368741785357      0.17651765356590
  H   4.18060113611007      4.84185634642268      2.98697089351579
