26
Coordinates from ORCA-job 9486optt
  Br  0.96529539676456     -0.07906634992946     -0.23247719126315
  C   2.84526973186221     -0.02200541159601     -0.05760737435592
  C   3.53288584581277      1.14468705239324      0.03927754163627
  C   3.11654939877385      2.56254676369547      0.05084117560815
  N   1.99280901141658      3.14047292188593     -0.03419720557655
  S   4.61783268719777      3.49450090247952      0.22059089703773
  N   5.66053962026462      2.16215094349715      0.26897640820411
  C   4.97834546451152      1.08144396765547      0.16936115456001
  N   5.56824002408218     -0.16640143010864      0.18400046137709
  C   4.86584980828390     -1.32506825939001      0.08191668623135
  C   3.50410196204809     -1.27947551067005     -0.03730319609352
  C   5.59985909000802     -2.58828890417877      0.09043966450116
  C   6.92130460935518     -2.74310779724208     -0.02322340736243
  C   7.31954353160137     -4.19102600834245     -0.05318078727595
  C   6.04742901698678     -4.90749771859794      0.43458172802806
  C   4.89745016995636     -3.92697779741398      0.14657739449588
  H   1.22517584906124      2.48265913050407     -0.12679552952724
  H   6.56883613499729     -0.18962576951688      0.31345706232608
  H   2.93637495919733     -2.19155678441860     -0.12153870635303
  H   7.64526525399495     -1.94696318720246     -0.15016648845407
  H   8.19198997766914     -4.40416902102026      0.56539516193431
  H   7.58197783008700     -4.47711174148467     -1.07713216188121
  H   6.11895803719993     -5.06621408097515      1.51102197753819
  H   5.90096475673082     -5.87874325597961     -0.03389574804600
  H   4.11991253706938     -3.96124895575925      0.91028618705243
  H   4.41723929506707     -4.13291369828455     -0.81520570434176
