19
Coordinates from ORCA-job 9489optt
  Br  0.93055601874950      0.16810374523678     -0.20952953516263
  C   2.79348471854185      0.10379012351247     -0.00458525215944
  C   3.55495147304295      1.20326804764208      0.01662740605378
  C   3.25290096225036      2.65756613487277     -0.06517744948636
  N   2.16942082268857      3.29889317657400     -0.14541205220530
  S   4.82573043966240      3.47499612279611     -0.01805479064999
  N   5.74776710773175      2.05960452216443      0.09242846764046
  C   4.99763504811596      1.03960743505836      0.10721035664878
  O   5.53850643113493     -0.20238057777808      0.18774412879410
  N   4.74556236690834     -1.30974349427188      0.20274838695762
  C   3.46783006915750     -1.19893322571874      0.09675573572141
  C   2.78140249720989     -2.49851740175125      0.03816974452039
  C   3.21367046524491     -3.56591411931022     -0.69627972957944
  N   2.51086392570611     -4.72056091664947     -0.54052473018063
  C   1.55593775060641     -4.55388072037178      0.31808806318925
  S   1.43182783656545     -2.97970114266267      0.98592112301120
  H   1.35271868530663      2.69503850538135     -0.16325271933063
  H   4.06237537929787     -3.52985299651590     -1.36367482552728
  H   0.85985800207858     -5.32838321820837      0.60679767174471
