27
Coordinates from ORCA-job 9493optt
  Br  0.98847793840704     -0.06345714099271     -0.30432225652697
  C   2.88068640780915     -0.07148735684369     -0.16115806512248
  C   3.57547242769775     -1.26339257112771     -0.09418326327593
  C   2.81890785594736     -2.57731986858928     -0.09107970115682
  N   3.63904462638289     -3.77297820829607     -0.24420312819324
  S   4.98612533387165     -3.84446411614360      0.68757191514366
  O   4.57399810132034     -3.61813635445335      2.03687883089726
  O   5.70844428861653     -5.01620709005622      0.30614996856328
  C   5.86988307924305     -2.40902265000588      0.12284073798299
  C   4.97193582440991     -1.19666282343569      0.03799967741450
  C   5.54759687542735      0.06134709148989      0.08493077773137
  N   4.88204918014444      1.20570841175509      0.01411192214438
  C   3.55586430086999      1.16583516421515     -0.10273429641826
  N   2.90259124784706      2.35269009409686     -0.16116637175273
  C   3.61034130713873      3.60479042439709      0.03116745547560
  C   2.65665315440053      4.70628048139933      0.12483012694211
  C   1.86230659836304      5.59650656500997      0.21376728956940
  H   2.07854815405935     -2.58282970849378     -0.88951273442091
  H   2.27101999090920     -2.65320962561923      0.85054671549649
  H   3.83050293842062     -4.05908423449271     -1.19638157734928
  H   6.29065325233423     -2.68763756734077     -0.84536304772510
  H   6.68904245106274     -2.24402994867153      0.82345325362243
  H   6.62443376734361      0.15061900386438      0.19500783424944
  H   1.89734305913032      2.36548195989387     -0.14100211099169
  H   4.30328416745301      3.77840629313784     -0.79559603621468
  H   4.21611214524569      3.56122258505238      0.94022070420652
  H   1.16168152614433      6.39303119025040      0.29622537970864
