21
Coordinates from ORCA-job 9494optt
  Br  1.15374288791451      0.24843497132742     -0.33756632366734
  C   3.03530784879465      0.12502870434789     -0.14898128997038
  C   3.65810303648669     -1.12369574897174     -0.07039707836639
  C   2.88544426263826     -2.41717006738334     -0.01291364096475
  N   3.64402310280138     -3.59409774900893     -0.41124147262885
  S   5.07747620547623     -3.80781508443841      0.36253887168596
  O   4.77592574381247     -3.80509820569016      1.76044215857522
  O   5.74768950301495     -4.89387678883821     -0.27382174255783
  C   5.93817120221309     -2.29583094210291      0.00237135066931
  C   5.04845369436423     -1.07265911306098     -0.00718026230613
  N   5.71978264124526      0.07808359332300      0.00055368722432
  C   5.00708148444415      1.18813052085766     -0.05370137365799
  N   3.68222152541481      1.26496091791441     -0.14190896295066
  C   2.27139469371291     -2.63696985075022      1.38359524984327
  O   2.07455975574630     -1.74266278057428      2.14571081341917
  H   2.02286543161875     -2.35402997743908     -0.68331111476944
  H   3.70509216541172     -3.77743851054172     -1.40497630578723
  H   6.41160693542989     -2.41572773740604     -0.97320191863394
  H   6.71626659406404     -2.17490038902885      0.75548637769545
  H   5.54858705283514      2.12635383690064     -0.03352988336806
  H   1.99420423256050     -3.68401959943612      1.59103286051628
