23
Coordinates from ORCA-job 9498optt
  Br  2.07287725389953      3.35150617647864     -0.45933377910397
  C   3.03482475251494      4.95658137731859     -0.19626255406587
  C   4.27574388690447      4.97636882385147      0.33385152317556
  C   4.99268599239291      6.26090294669048      0.44763986075945
  N   6.36837686217521      6.31758426067863      0.83914109515990
  S   7.46601055842630      6.18064572193331     -0.45535335525540
  O   7.26562414369955      7.31309683282278     -1.29139449149284
  O   8.72507094341200      5.88321433738410      0.14519899730022
  C   6.74174947013827      4.74651240427870     -1.14982337360046
  C   6.88407838146150      3.67653269597862     -0.36263804883918
  N   5.78422248506069      2.94037496655829      0.06395869641546
  C   4.79207238519318      3.62272572998575      0.81101399208687
  O   4.30887517587722      3.08156309564709      1.76387097626436
  C   4.47285226009385      7.44393575920028      0.07462504447484
  C   3.16692566349904      7.68672021780819     -0.51090056973409
  N   2.68044158454909      8.79521620987938     -0.88243440103264
  S   2.10883996147730      6.29044765415921     -0.77909253714079
  H   6.63678508592228      5.64708446753561      1.55396659976942
  H   5.82995658501849      4.93563721808586     -1.70008454151441
  H   7.81988009423484      3.49889690151811      0.16137278091486
  H   5.98301477694899      2.05384056518381      0.51373294158553
  H   5.10934362411123      8.31411672644731      0.18154309853696
  H   3.33274807298908      9.56049491057573     -0.71759795466379
