19
Coordinates from ORCA-job 9499optt
  Br  4.85385284784277     -3.10157716844439      0.09680893770818
  C   4.37593835699263     -1.29603411715268     -0.18199250179440
  C   5.29201274707741     -0.31219870486554      0.04847603234927
  C   6.55836891206945     -0.69930729899092      0.72226678699496
  N   7.75506597973015     -0.34122121580852      0.51594643086885
  S   8.10027939104803      0.62283565969924     -0.81991210532708
  O   7.39168304694693      0.11237557265591     -1.96056379814841
  O   9.50733387741655      0.81023913192157     -0.84658943015451
  C   7.28041140192398      2.19555190349818     -0.30012436136268
  O   7.96255449347796      3.16540971971926     -0.15664386659734
  C   5.83267184879676      2.15794990116950     -0.23532237770367
  C   4.99073644981340      1.09399470690647     -0.21176350734629
  S   3.30714745895833      1.56911133788698     -0.38992860422001
  C   2.47829764752578      0.10962204668960     -0.67662000854104
  C   3.02850051407939     -1.11455058461792     -0.62305754269159
  H   6.41377591902342     -1.39532424593079      1.54894265963723
  H   5.40057798992484      3.15007394125112     -0.31178078540872
  H   1.42893015176160      0.24917838225477     -0.90335416542984
  H   2.42986096559059     -1.98612896784185     -0.84278779283290
