27
Coordinates from ORCA-job 9506optt
  Br  10.33945812582995      5.26175736187804      1.62885582077453
  C   9.02908080148059      4.05475682551034      2.21756835515324
  C   8.10807488295273      3.55966568710549      1.37396322508172
  C   7.90512574218815      3.88247818872104     -0.07379286131719
  O   6.97820831381560      2.92123176370146     -0.52831142958206
  C   6.14219993270733      2.51608594706879      0.55394882341217
  C   7.07589426823112      2.64198026155954      1.77315688986520
  C   7.04403464347811      2.29976366759344      3.08725657591810
  C   6.04105970846589      1.35409439235320      3.71168963784457
  N   5.29523663570433      0.85943380287743      2.59235636906611
  C   5.89006814193012     -0.04404487534068      1.92730788830524
  N   5.75293861169163     -0.00230798339105      0.57657610255527
  C   5.44089135345613      1.25083474982731      0.01049681629123
  N   4.69973445428485      1.41734252157817     -0.99220384694962
  N   7.98963315228540      2.80829498511641      3.93820723188042
  C   9.03429964517503      3.68637319693001      3.62719596177441
  N   9.89531054471065      4.12095593271776      4.46014517518373
  H   8.81573388289152      3.80984650313917     -0.66713981629013
  H   7.50341744891716      4.89996695166372     -0.17479979877882
  H   5.33390496153380      3.24669119804852      0.68290872155817
  H   5.39592351751564      1.89068238049407      4.41019364079652
  H   6.58715731604205      0.57481145953884      4.26845305616117
  H   6.60405949016687     -0.76533747059227      2.34141445598822
  H   5.86236960619812     -0.80718897121190     -0.01875334920469
  H   4.27716597829830      0.54407666400630     -1.30346673618697
  H   7.95923514104728      2.49691645291811      4.89794576324540
  H   9.74178369900154      3.76583840618870      5.40082732745404
