27
Coordinates from ORCA-job 9507optt
  Br  2.06193777405003      0.56253444201729     -2.43497021456631
  C   3.40258948438999      0.09664531335860     -1.20899534818999
  C   3.82413768938057      0.94966615800520     -0.25264880384016
  C   3.36043236268209      2.34835186404943      0.01934403502485
  O   3.89607317481631      2.65959572478725      1.29704090092069
  C   5.02363800555947      1.86683644015215      1.56774009039255
  C   4.83534733070703      0.63342764421923      0.69888769854374
  C   5.41605710056533     -0.59274078755764      0.60757178641616
  N   4.98319599881196     -1.45250613805368     -0.35396889265118
  C   3.99290622792820     -1.22659168313211     -1.31966170853925
  O   3.72179083174874     -2.09094971999109     -2.12150359665529
  O   6.39063744802405     -1.14475241339950      1.33842590082350
  C   7.10260095250332     -0.34822687516544      2.28451480295956
  C   8.00260580514056      0.70761120551294      1.62949876792612
  C   7.59678200039596      2.17083238168804      1.84308539147179
  C   6.31613106937700      2.58394997549560      1.15167126310432
  O   6.28981326093365      3.42450273496314      0.29541055362859
  H   2.27463352776295      2.42894490486164      0.06451984154334
  H   3.74287976015229      3.03251339842972     -0.74453804429918
  H   5.03070060324041      1.66552233327458      2.63955612118168
  H   5.42416322145519     -2.36202547966563     -0.39938713477941
  H   7.70143905933584     -1.07846153439924      2.82229379534556
  H   6.39905465542928      0.08522677839442      2.99704651566711
  H   8.06827100852895      0.48852238697460      0.56120114057262
  H   9.01046123133110      0.58782005890971      2.02745482959556
  H   8.38115493430008      2.82792230782122      1.47091174863106
  H   7.47856548144956      2.35882857844959      2.91549855977196
