17
Coordinates from ORCA-job 9509optt
  Br  0.88360580881012      0.69886531650582     -0.07429707861241
  C   2.72878127019057      0.40613452162388     -0.07095317573821
  C   3.21978545264443     -0.84274745924755     -0.07435313626858
  C   4.67295542906797     -1.04496236561679     -0.07236246830285
  O   4.95502332996211     -2.41317943278917     -0.07699902015886
  C   3.74976223192491     -2.98912381339449     -0.08110701922250
  C   2.66892387965474     -2.17792917553836     -0.07996348206656
  C   1.61770252612039     -3.12980609043079     -0.08557716123710
  N   2.07778818260423     -4.36248848218680     -0.08939740717470
  O   3.46731071997334     -4.26479410790711     -0.08646101224261
  C   0.20364112909977     -2.91191215685667     -0.08710573650180
  N   -0.92068179085394     -2.69526119304794     -0.08846716056106
  N   5.63058659566918     -0.22746175629505     -0.06720930907666
  C   5.39509422771744      1.14258048731151     -0.06196165756040
  N   6.28145830607538      2.03472908678085     -0.05570117436889
  S   3.71856730024724      1.81478263604538     -0.06380117595101
  H   7.20869540109210      1.61157398504328     -0.05528282495582
