21
Coordinates from ORCA-job 9511optt
  Br  1.12436229114466      1.02713061895410     -0.25244153097078
  C   2.85738063141830      0.36537704501483     -0.11114470086616
  C   3.12846208193044     -0.95788777971937     -0.03305891143147
  C   4.52320582659926     -1.36236814968927      0.09452538818905
  O   4.67409890652201     -2.73515382217081      0.17568811958627
  C   3.40399779460908     -3.18376354581384      0.09445511348450
  C   2.46808692048784     -2.21671257912888     -0.02436789564511
  O   1.26428981136146     -2.83522532518758     -0.11062769302791
  C   1.58166273209063     -4.15286988610589     -0.03984027961877
  C   0.46290083335656     -5.12361956377799     -0.05571511809197
  C   0.10202486921643     -5.58647003354530      1.35218420010474
  O   -1.02483182288517     -5.70102528542252      1.72758139871998
  N   2.85303422669635     -4.42091290044688      0.08764907156480
  N   5.52367736782357     -0.58059394165303      0.13243793480876
  N   5.21277921730254      0.71698263953516      0.04148960117074
  C   3.96330835509156      1.32116789029584     -0.07699016838856
  O   3.86977405432462      2.52657066170165     -0.14041890193443
  H   0.79072362664280     -6.00834991314834     -0.60746407067634
  H   -0.41997247580853     -4.70023031691040     -0.52929766913940
  H   0.96301767662899     -5.83056217201189      2.00150881284952
  H   6.00001707544657      1.34951635923043      0.06884729931254
