20
Coordinates from ORCA-job 9513optt
  Br  0.93049100214246      0.32311711474478      0.51407206466274
  C   2.76827907976509      0.16777393479056      0.21623322717158
  C   3.35769512503798     -1.04054233035503      0.12610269462281
  C   4.78409624552368     -1.12146620753769     -0.11525952776728
  O   5.21415353202077     -2.43160032249641     -0.18112943891737
  C   4.09279049317875     -3.16597855691705      0.02341537685792
  C   2.95944450157289     -2.41202547853555      0.20693247300024
  S   1.51912075294913     -3.34169870471646      0.48332444601173
  C   2.49994045170397     -4.74246344986006      0.33874812891319
  C   3.83721054141475     -4.55490083506910      0.09764169036371
  N   4.45180251014606     -5.79334515559831      0.01710368577358
  C   3.48957607376589     -6.61913071169185      0.20487754739413
  O   2.25459254918278     -6.06125216277959      0.41043294329476
  C   5.51801024002194     -0.01997734159728     -0.24075332710220
  O   4.92395991454887      1.19028630514575     -0.14307691221729
  C   3.56532833891847      1.38163699173865      0.08963971413631
  N   3.09609716197903      2.54757845954025      0.18023070135539
  H   3.52601000105217     -7.69567011171820      0.22210292526498
  H   6.58066292917794      0.02975823808304     -0.41997919439640
  H   3.82373855589736      3.24890032482956      0.06734078157747
