23
Coordinates from ORCA-job 9516optt
  Br  1.11428481517836     -0.37299676826678      0.41077034642546
  C   2.97565115123440     -0.11390272307959      0.31616811067510
  C   3.80356561187686     -1.16870675931033      0.16474273647030
  C   3.42567444927521     -2.61877693258095      0.06375397238318
  O   4.64622958083855     -3.34265255672082      0.12161716647426
  C   5.76764308486758     -2.48844999918171     -0.04525747290187
  C   6.80195619426350     -2.83135051679004      1.00564732968752
  C   6.95481435296425     -2.02500983662454      2.22609559292065
  N   7.97085497461307     -1.95282114005141      1.16385670001550
  C   8.13133482536426     -0.77891840761176      0.39234997932050
  N   7.31925385773061      0.11353560215009     -0.00694578254597
  C   5.94308533381794      0.03613192137842      0.14599447745313
  S   5.18912849764928      1.58853178880989      0.30396674297380
  C   3.42204388310936      1.27263307971575      0.41392720306966
  O   2.71459676157146      2.23254680303993      0.55911777452507
  C   5.21870697550367     -1.09890605123693      0.07999944111877
  H   2.90318039255575     -2.81346279626642     -0.87948637316407
  H   2.77883192529538     -2.93340305900351      0.88431621112741
  H   6.21156624389163     -2.65083244189068     -1.03738925770586
  H   7.05438146268716     -3.88556603123052      1.04176077454634
  H   7.32066350234504     -2.48741625732410      3.13262867283443
  H   6.30299953825697     -1.17301303608522      2.36529681047933
  H   9.17355258510966     -0.62119388183874      0.12606884381737
