22
Coordinates from ORCA-job 9518optt
  Br  1.26289229518017      0.08891066288755      0.46271623247476
  C   3.05264752931401      0.03539580321010     -0.08442537533005
  C   3.80571972952346      1.13604691996475     -0.27493554605592
  C   3.78588104027934      2.63662279246137     -0.00906871992065
  O   5.18399927150940      3.08061336508410     -0.01669958824867
  C   5.96523135002093      1.97233141911822     -0.23206857291231
  C   7.19249634003389      1.43709079529852     -0.01485407725209
  N   8.50681976065488      1.75436810563837      0.34125104418753
  C   9.25234917642037      0.49441547650629      0.43405108873001
  C   8.28489419049698     -0.62816713330270      0.05786141084798
  O   8.49762343783285     -1.80115303580586      0.02042017079768
  N   7.07443887244155      0.01493860973542     -0.19544318654191
  C   5.76364786923636     -0.29461707350965     -0.49145549277339
  O   5.07121736023677     -1.42520968044666     -0.34687906551647
  C   3.65436879108564     -1.32465550178976     -0.22222008670246
  O   3.05563878035271     -2.34850296782137     -0.19535234322642
  C   5.14262611062863      0.89018384729274     -0.58799215926567
  H   3.35874501397444      2.86928831133121      0.96638730008103
  H   3.25236067459318      3.18851897412250     -0.78292342931236
  H   8.93991487585235      2.43947259661676     -0.26120542276023
  H   9.60804779722196      0.30645385678902      1.44887600030229
  H   10.11043973311009      0.46565385661908     -0.23704018160267
