26
Coordinates from ORCA-job 9519optt
  Br  1.16294271786292      0.15256878231265     -1.19303128579948
  C   2.94720369169781     -0.03807546202995     -0.55751300074065
  C   3.46020923474704     -1.29239220468730     -0.27366077096864
  C   4.74227497816964     -1.32378159601867      0.27428525954711
  O   5.16982038035500     -2.57369901644760      0.54792044953501
  C   4.10932765384427     -3.45652476485097      0.24954107488727
  C   2.84439686124319     -3.32892030898125      1.03840955932258
  N   2.05363344032467     -4.50965631361567      1.24024144365950
  C   0.92658980330301     -4.67597907321253      0.37219039664633
  S   1.45079507016525     -4.78307101846294     -1.34584075806545
  O   2.51186628253112     -5.75848374274475     -1.41405764173215
  O   0.30390598304710     -4.89668850085419     -2.20231838042792
  C   2.15865011547959     -3.15700468714455     -1.55400002631961
  C   2.95644300468653     -2.69392148644438     -0.35346567956872
  C   5.46884244206309     -0.16993888290966      0.49878995236489
  C   4.84121920178087      1.01185148411251      0.13571089959710
  N   3.61160190418694      1.08133111836709     -0.37472289703119
  H   4.42779512224883     -4.42550479682101     -0.10832916789846
  H   2.85076033665085     -2.62256586873439      1.86227363894798
  H   2.61843717071486     -5.34888777480390      1.26517376319455
  H   0.23278747032661     -3.83654218140259      0.43970525650320
  H   0.39553682409925     -5.60467154649412      0.57936013661512
  H   1.31094257426937     -2.50095004884345     -1.73898924085349
  H   2.77515565236041     -3.20587052493490     -2.45365537495601
  H   6.45986065339054     -0.18869497420910      0.92689052135337
  H   5.34600143045122      1.96107338985564      0.27009187218775
