27
Coordinates from ORCA-job 9522optt
  Br  1.03636157994236     -0.00065422989420     -0.16827007431268
  C   2.89864889093200     -0.12300001796646     -0.07573433679524
  C   3.57232368935682     -1.28343871882577      0.15156901478351
  C   3.09448971324512     -2.64331170402570      0.35315898491200
  O   1.97752778442371     -3.05829766836131      0.53799596992065
  C   4.33472999495091     -3.56276007294895      0.29419073821549
  C   5.53555459114409     -2.62066586779636      0.50137057271848
  C   5.00642965819795     -1.24266561837813      0.18691249460640
  C   5.69309247322175     -0.10212318718985     -0.00659803427893
  C   4.98588515786785      1.14325212151287     -0.24978132943471
  N   5.43250072069473      2.31921417963001     -0.44550548335559
  N   3.57703412927343      1.01627132443265     -0.26186566188070
  N   4.21320708368589     -4.69631975065442      1.18848874441692
  C   4.49909298547100     -5.92234870252875      0.42197118287448
  C   4.04849547919184     -5.63185475374322     -1.00873112757304
  C   4.36327436191592     -4.15677840279975     -1.13561147119946
  O   4.63634145673149     -3.53697937489180     -2.12177157735927
  H   6.38929246781970     -2.87385323007388     -0.12682065706070
  H   5.84211754069602     -2.67520608488212      1.54717429907018
  H   6.77417148219585     -0.06752004462318      0.01521635480240
  H   6.44725236835679      2.33032208553797     -0.42550960032649
  H   3.07950438239689      1.88013351990231     -0.43569685731877
  H   3.25535415914945     -4.72820763719219      1.52552871330448
  H   3.99159644584596     -6.76959575268657      0.87663811306601
  H   5.57285742837872     -6.12206599530158      0.44890446504267
  H   2.96245840135891     -5.73920539901459     -1.09339599866310
  H   4.52940557355482     -6.20634101723700     -1.79682743817500
