27
Coordinates from ORCA-job 9523optt
  Br  1.12807322590849      0.29030126166423      0.16964413262372
  C   2.99152962976513      0.04320114204080      0.16265053765854
  C   3.85454152944169      1.09110612254438      0.22681128722938
  C   3.34608975201080      2.50842709119727      0.28080972864601
  O   4.34508370653387      3.46103425162755      0.59032600402748
  C   5.57440917615080      3.31734121339201     -0.10110107866724
  C   6.23514501192416      2.01121885477288      0.27297532912225
  C   5.26611738092140      0.86225942942502      0.18365316604644
  C   5.69380687036580     -0.41490648142174      0.06722781748059
  N   4.81625352395480     -1.44905488845873      0.01617323765859
  C   3.43160074551527     -1.34093457712086      0.06570379717252
  O   2.72879545700673     -2.32909267038464      0.02375286465702
  O   6.38567425469731      4.37778250002992      0.25932878377529
  C   5.99054244607446      5.53373770225631     -0.49131040030774
  C   5.65035864393697      5.00033679025983     -1.88004530851113
  C   5.30353940074995      3.54973666813524     -1.60080953587279
  O   4.88626899607046      2.73122617212442     -2.36823749119243
  H   2.58846002535788      2.60772796810222      1.05681654692205
  H   2.86755562454083      2.73507007317489     -0.67945846114979
  H   6.59529942334975      2.14206409177966      1.29645130819383
  H   7.10002457102265      1.83999445217605     -0.36926898659794
  H   6.74217580789858     -0.67572057546347      0.00887406204049
  H   5.15151728574447     -2.39806967259978     -0.07027189962746
  H   6.83010026921163      6.22285615717615     -0.47694923857027
  H   5.12705409708629      6.00068853434557     -0.01501868475711
  H   6.51664412074659      5.01607399102921     -2.54405141455576
  H   4.82633902401316      5.50559439819558     -2.37967610344455
