22
Coordinates from ORCA-job 9524optt
  Br  0.97248829792474     -0.06012317607852     -0.05392505218583
  C   2.83189156713112      0.02408058916033     -0.05747077078603
  C   3.52467210641642      1.16783470498377     -0.05808568411044
  C   3.09497916505743      2.61309149851451     -0.05689830018137
  O   1.98395388714528      3.06280584577016     -0.05585769662979
  C   4.37859668836795      3.39248133134183     -0.05779594416038
  C   5.43277029784667      2.52289407375231     -0.05926851001906
  C   4.97536052020637      1.14676927903122     -0.05974512782010
  C   5.62566959481303     -0.01660598536989     -0.06105043972367
  O   4.94487514848600     -1.18755640496040     -0.06111507478930
  C   3.56573984327242     -1.26274821702309     -0.05956978899266
  N   2.98741333342007     -2.37772729840625     -0.05999222418874
  C   6.80305720917113      2.98776218927001     -0.05986401952401
  O   7.79969619086695      2.29029473780742     -0.06078775218359
  N   6.87968839517062      4.37805510593689     -0.05904367436589
  C   5.82461807303682      5.24583358800238     -0.05778913463085
  C   4.54630158693479      4.79626062096239     -0.05713979648899
  H   6.69755931942746     -0.14375904199992     -0.06219429092166
  H   3.66230626724089     -3.14008200865378     -0.06160633305176
  H   7.82284608925080      4.74159421772103     -0.05931179571957
  H   6.08406859223999      6.29489765732612     -0.05733579425895
  H   3.70344782657301      5.46994669291149     -0.05615279526735
