18
Coordinates from ORCA-job 9525optt
  Br  0.92420035495172     -0.07693769391560      0.04436631181337
  C   2.76902973938533      0.04452013230515      0.04372685106744
  C   3.46741466248452      1.18033278706339      0.04417280336423
  C   3.08584401059541      2.63813477193011      0.04516286078736
  O   1.99377445484834      3.11508543818023      0.04576149394025
  C   4.41529736506370      3.34380989243684      0.04543740902924
  C   5.43258664111946      2.46989229097441      0.04457051205159
  C   4.91236204542922      1.10246250007485      0.04375326422640
  N   5.61764850379396      0.04162503538651      0.04297860509788
  O   4.91220393787832     -1.13381739971469      0.04243486595104
  C   3.53446598964039     -1.23407825897616      0.04268574263217
  O   3.05415354393456     -2.31813032958281      0.04209616281469
  C   6.79503465896544      2.97053088697642      0.04468622750269
  N   7.88560104452879      2.35767597660176      0.04409161590094
  O   6.83684007067226      4.35497653726488      0.04569637859068
  N   5.71984694324206      5.19011539517734      0.04656276993222
  N   4.58425773036856      4.72115534210744      0.04643230536912
  H   7.73743830309792      1.34964669570992      0.04338381992870
