28
Coordinates from ORCA-job 9526optt
  Br  3.20236934533399      0.08513339341210      2.59924120768291
  C   2.87318063351679      0.26156114831162      0.74753841969945
  C   2.91630194748155      1.45614536918658      0.12614095498840
  C   3.08403156745797      2.74271786950009      0.91671541167120
  O   1.83743752200078      3.26281156704248      1.35666401155065
  C   0.85440379300535      3.28241931778344      0.36754906215537
  C   -0.11194504154703      4.40815690396037      0.30968174159517
  C   0.92386621941372      4.24883169815759     -0.77453544282923
  C   0.62122845024138      3.73911573366165     -2.16248663936031
  C   1.91561191653989      3.31571013533116     -2.88877462157610
  N   2.89370674044459      2.71730221737969     -1.98571457957407
  C   2.56700356997554      1.55748921791447     -1.31393234049122
  N   1.90634997622043      0.67080576970525     -1.96735222761566
  S   1.55761779147825     -0.82226800636658     -1.36401472554185
  C   2.53548449434064     -1.01397234480784      0.08516587282014
  N   2.82944362155965     -2.13751777273224      0.58984583982986
  H   3.61826694586816      3.50489791860626      0.34428099746363
  H   3.66380290172672      2.55546765832955      1.81439974374877
  H   0.45349307204480      2.30054165363164      0.12903572386070
  H   0.04295143964767      5.22179344755790      1.00390637842901
  H   -1.14483210352546      4.17252540933926      0.09253072604750
  H   1.73006015373705      4.97372068120802     -0.70446512862010
  H   0.10925471144753      4.49209979659862     -2.76593445245337
  H   -0.05356245035182      2.88281406448557     -2.08262043504060
  H   2.39806167140858      4.18572458992730     -3.33451709114242
  H   1.69534148752899      2.61190658251716     -3.68884523088708
  H   3.36374376904101      3.40025409596988     -1.42130136476609
  H   2.52832585396319     -2.91318811561108      0.00079818835539
