23
Coordinates from ORCA-job 9527optt
  Br  1.34448301514449      0.31905212342965      0.65317099660820
  C   3.14726196659268      0.23707679154296      0.09638084280762
  C   3.72970473123674     -0.94495331900548     -0.21253447732938
  C   2.86200925692566     -2.17627445521627     -0.44394265050013
  O   2.52193705950979     -2.93881687456329      0.70861056373180
  C   3.63501506598912     -3.68464513292594      1.04414354102944
  C   4.11735603341312     -3.98970046476456      2.41041609696498
  C   4.79702907033075     -2.91467774927981      1.61433559610412
  C   5.96251924133198     -3.03161005142799      0.72783538263228
  O   6.81191225199779     -3.88038296313218      0.74909328503571
  N   5.95860399195851     -2.06672998170123     -0.30443267347264
  C   5.18612587238506     -0.91492207216660     -0.43080838138870
  N   5.87613821459919      0.12043953134297     -0.78031378860670
  C   5.38908664134562      1.38576967899265     -0.91401080037588
  O   5.91993057610801      2.28519081755445     -1.49286996933730
  S   3.87542550263564      1.78972953955788      0.01789924525095
  H   3.37101442224541     -2.81905936033135     -1.16962599288351
  H   1.92019695400519     -1.85077132242690     -0.87727480496898
  H   3.90489056108689     -4.42260538532460      0.29162375679549
  H   4.60964614930040     -4.94302175311321      2.54131623432771
  H   3.55337511061014     -3.62568247758373      3.25705230340248
  H   4.53223979271606     -1.91064849569385      1.91157348142050
  H   6.86709851853171     -1.96875662376354     -0.74363778724805
