28
Coordinates from ORCA-job 9532optt
  Br  0.85090084677819     -0.13482898515360      0.22075585518148
  C   2.72942305673448     -0.11852664317051     -0.01964653162487
  C   3.43141251815052     -1.30654059032881     -0.10390832909682
  C   3.21538701994539     -2.77396409320411      0.21185781698545
  O   4.52216264135212     -3.24866736828295      0.60222882833134
  C   5.50720202780354     -2.43648333889812     -0.03660735008879
  C   6.72570448304019     -1.93316322938379      0.76142337803313
  C   6.94921892263028     -0.47747986255211      0.21851001232413
  C   5.53018398497768     -0.03165632918226     -0.10246093904511
  C   4.78368553442660     -1.16615028364653     -0.23509194724683
  C   4.81589464104180      1.16668483260312     -0.03344684751496
  N   5.49069509247032      2.37906639451560      0.14879960103978
  C   5.16608325660453      3.60542932452926     -0.41609436908689
  N   4.23134941841080      3.89011371826844     -1.22366301031725
  C   6.07296620470215      4.65047389993303      0.01937372395581
  C   6.85212007938236      5.48054230697398      0.38745908760571
  C   3.41047707649327      1.10163110740894     -0.01878120115076
  H   2.85779239838458     -3.33848475045728     -0.65571434049772
  H   2.52994424308789     -2.93256571037887      1.04345554738100
  H   5.82268998057778     -2.90996431797437     -0.97594493860498
  H   7.61266501685527     -2.55650326306184      0.66422302529641
  H   6.44227175982357     -1.88296504195086      1.81406883071702
  H   7.57765493908714     -0.48837785700606     -0.67602840458381
  H   7.44724676452703      0.15434179857417      0.95544850683926
  H   6.42319744632331      2.31685157447685      0.52649593655597
  H   3.69507653633846      3.06889401197079     -1.49430261543324
  H   7.53180025730144      6.23606287279316      0.70301896099020
  H   2.84079385274923      2.01022982258472      0.11857171305535
