28
Coordinates from ORCA-job 9533optt
  Br  1.19903594689875     -0.14332185424049     -0.81629376626531
  C   3.08176649128789     -0.32350725805484     -1.00695882890405
  C   3.85439669676464      0.79917779864489     -0.81765875778680
  C   5.26183884382491      0.66101575472478     -0.90795417563432
  O   6.12085046813149      1.73228148810396     -0.79999089641360
  C   6.01572094308238      2.72605165290608      0.27329569419814
  C   5.33537665785664      4.14817337115337      0.03332193017747
  C   3.75265463949384      4.54417340234891      0.02865438874346
  C   2.62427786808086      3.44259919348708     -0.25608315531341
  C   3.59490238966895      2.24449083496428     -0.43490626510757
  C   4.05816584556912      2.15460583651763      1.10756186040130
  O   5.43701831603427      2.06862660960042      1.33567435818123
  C   4.19663143257733      2.81641836566281     -1.69189638209711
  N   4.37377942303160      3.22802828365761     -2.74848062415646
  C   5.77563273891781     -0.58221663137686     -1.22484143327227
  C   4.88083193314830     -1.62801061397173     -1.41539664528813
  N   3.56016554397046     -1.51365232462181     -1.30105511058446
  H   7.06044603148012      2.92868152246816      0.49722701952854
  H   5.77841797201853      4.54227720441064     -0.87858737565136
  H   5.76287728857695      4.72262133918630      0.85867907478355
  H   3.65989295938926      5.31641560302326     -0.73225309284552
  H   3.54061251192251      5.01528465838384      0.98692680309160
  H   2.05174990607499      3.67652237827730     -1.14858335100058
  H   1.94631369021625      3.32816514310351      0.58691633405120
  H   3.58373887496782      1.24418774324663      1.47474441256497
  H   3.66841411735623      2.99819843740223      1.66920055695798
  H   6.84213906937702     -0.72446469856361     -1.32215911917131
  H   5.24835140028100     -2.61582324044439     -1.66610345318717
