28
Coordinates from ORCA-job 9535optt
  Br  1.50866089705756      0.84461621901166     -1.57392327825671
  C   3.18235534947690      0.01917006929501     -1.29999312085033
  C   3.35762787287818     -1.04953532319676     -0.47987474787579
  C   2.18776190665818     -1.61258858098085      0.31031068118541
  O   2.56769348547864     -2.23641227336067      1.50753273373821
  C   3.00830654582220     -3.58066845868185      1.42901847920226
  C   4.14849430766830     -3.67398411438841      2.44197846987685
  C   5.25958883538260     -2.86565760627059      1.74156666418441
  C   4.91550645544291     -2.89051760628093      0.22343768959949
  C   3.73379141213067     -3.84948433081462      0.11275566902939
  N   4.62060368462568     -1.57153195269429     -0.36035928446464
  C   5.75255502933810     -0.85162946005048     -0.85011919247360
  N   6.94827864783019     -1.06336021247152     -0.47587683128571
  N   5.50694460995575      0.08958820501793     -1.83894073633062
  C   4.30727467635105      0.49729368317307     -2.03639627139858
  C   1.88032740774594     -4.49736724284855      1.66935536515158
  N   1.00271632023733     -5.21353915966935      1.83939457442437
  H   1.56816977764661     -2.26199083321622     -0.31734455611466
  H   1.56473308518817     -0.76946553337021      0.60083098815527
  H   4.42994452850749     -4.71708271815843      2.58724898577240
  H   3.84766023966092     -3.25502962610562      3.39977356208982
  H   6.24298416813479     -3.29509735952622      1.92959362810752
  H   5.27215840557668     -1.83561358014022      2.09276299971459
  H   5.75684351947624     -3.25963412501635     -0.36105177245349
  H   4.09189799558122     -4.87880697649404      0.11692953170828
  H   3.13147290381016     -3.71219024995846     -0.78234655140240
  H   7.01574929338912     -1.72046701847994      0.29289196552027
  H   4.14689863894838      1.24298616567695     -2.81115564455358
