26
Coordinates from ORCA-job 9537optt
  Br  1.07398956465554     -0.04285063450036      0.04226520154794
  C   2.95695850185597     -0.08051211217996      0.07779491302889
  C   3.71245973357949     -1.25006475714536      0.16895507477249
  C   3.07121128772001     -2.61685389078717      0.31882097134050
  O   2.04641915080944     -2.78800994274914      0.91169486900124
  C   3.95324318110797     -3.71061756027155     -0.21245998424016
  C   5.26149621718726     -3.61531118215476      0.57883008474580
  C   5.90919511950303     -4.98267200663418      0.35020767875192
  C   4.72309381158499     -5.94929863710369      0.45933099678881
  C   3.52417618334043     -5.16760213658756     -0.07580371581789
  O   2.45977437300918     -5.61714448773390     -0.37841448276875
  C   6.01964206952205     -2.36532017213535      0.18618727689619
  C   5.11304318343663     -1.15492775675091      0.11884559225147
  C   5.63913936617440      0.13338009949425     -0.01609871568529
  Br  7.52464939362726      0.36835124076340     -0.14099251174362
  N   4.93144142396950      1.23306412901311     -0.08441308610367
  C   3.60965650363975      1.13644324399401     -0.04336186503107
  H   4.16598930178411     -3.52694319263994     -1.27417627562212
  H   4.99471063767629     -3.54436915876325      1.64132246106607
  H   6.70330895739496     -5.19522007589619      1.06464511191420
  H   6.34003236657154     -5.01933115708649     -0.65407326272832
  H   4.50888697807229     -6.18558833867418      1.50605675712098
  H   4.83618667789741     -6.89125217507260     -0.07333959121917
  H   6.48235296582634     -2.50158156100723     -0.79847493243288
  H   6.83732722926022     -2.16360605414115      0.87975379000206
  H   3.04361582079390      2.05683827675017     -0.11310235583562
