31
Coordinates from ORCA-job 9539optt
  Br  1.24307863392437      0.79969699985954      0.24206928045851
  C   2.99704439312602      0.13868301621467      0.10209079531119
  C   3.35324534067402     -1.16384211615301      0.28096121125414
  C   2.35317865401999     -2.27351518575916      0.52360624308197
  O   1.21571088444766     -2.12982291690440      0.88645159202771
  C   3.06302671647029     -3.56344198821240      0.20196030641849
  C   2.57115767491348     -4.98047430522325      0.02264463626955
  C   3.62386270969399     -5.59709955062294     -0.93539500370996
  C   5.12634854358711     -5.24675004554093     -0.73414522047319
  C   5.60281707507148     -3.77466655560543     -0.87240080737690
  C   5.27315343578097     -2.88842797989357      0.37364374141732
  N   4.23444272856162     -3.59176048636473      1.08853577150244
  C   4.77788559085677     -1.46719521195887      0.07539909434513
  C   5.65339053003464     -0.50487908068274     -0.27561153894179
  C   5.25555998313201      0.87534827175515     -0.46594695798665
  N   5.95293460183702      1.89370313648823     -0.78411046063437
  N   3.89087381314562      1.08915460202439     -0.23890683932622
  H   3.42004459487634     -3.31042222933075     -0.79870069613884
  H   1.58110335961957     -5.02993002334101     -0.43230127869880
  H   2.53722452696535     -5.49704583168248      0.98128965492463
  H   3.54288469634600     -6.68566114638366     -0.92134547796841
  H   3.35270810945984     -5.28504995987530     -1.94995566682479
  H   5.66056202300932     -5.80927298455503     -1.50433329568096
  H   5.46714986903491     -5.63274349064706      0.22686922082986
  H   5.19430235875135     -3.32880411598121     -1.78288120528662
  H   6.68508570310639     -3.78258408093591     -1.01060603519207
  H   6.16229666960369     -2.81051633738508      1.00240578483460
  H   4.02661464722145     -3.15693760750375      1.98161301769123
  H   6.70587153730897     -0.73401256200100     -0.39277677105875
  H   6.92419045563759      1.63597226606202     -0.92716230770289
  H   3.57925013978215      2.04329750013968     -0.36196078736556
