30
Coordinates from ORCA-job 9544optt
  Br  1.83630185957616     -1.70288026263265      0.70270033506404
  C   2.86372468789838     -0.13524768269491      0.53042444356524
  C   2.62292374467037      0.97955485220060      1.25566180111009
  C   1.33090730056202      1.25497269955929      1.98301689150439
  O   0.36403796895228      1.74091512265054      1.04805828221211
  C   0.42565782950466      2.98850460525881      0.43701585896873
  C   0.65248989595740      4.23092599902696      1.29502850879015
  C   1.10212802476604      5.24498672764240      0.24180796086467
  C   1.95322401930497      4.37949201397771     -0.70186328988241
  C   3.45213182929956      4.51855638197450     -0.33695801186861
  O   4.27750381146360      3.43186977975964     -0.75948255692978
  C   4.01477699046820      2.26990278861761     -0.13164124713342
  N   4.26867584251388      1.17145766793547     -0.88161021052201
  C   3.87637236117445     -0.13644539190985     -0.52916021584309
  N   4.26384024145649     -1.18407302979726     -1.13747600659534
  C   3.41274023277080      2.15069539684857      1.06978991955348
  O   1.42260982715120      3.06738019034437     -0.59264063934638
  H   1.48852909181043      1.97404692401320      2.79086228147608
  H   0.88481704863330      0.35264448893157      2.39152130820843
  H   -0.54972953157872      3.05839440451391     -0.05319819633786
  H   1.42862377393762      4.06342137052958      2.04150954485847
  H   -0.25716069396126      4.52599817299272      1.81421256176107
  H   1.65498594146592      6.08851619701949      0.65497095984286
  H   0.23693949503269      5.63843899399576     -0.29221834524645
  H   1.83877869995154      4.67980948973288     -1.74509142939378
  H   3.59202095852916      4.69292966988277      0.73089889560659
  H   3.84221119464476      5.39078152082877     -0.85991363729839
  H   4.66030251805847      1.31714660792222     -1.80057915362483
  H   4.93572991376100     -0.97438576479643     -1.87213948261567
  H   3.19090512222460      3.01769006567173      1.66149286925158
