23
Coordinates from ORCA-job 9548optt
  Br  1.03301081330952     -0.02051324790428      0.35225471706959
  C   2.89301104547817     -0.00800054237781      0.08872559000237
  C   3.57066379921729     -1.06980517236614     -0.39027595578556
  C   2.90739295251095     -2.32904527579514     -0.86880760431276
  O   3.07339469510834     -3.42711288266010      0.02004094190566
  C   4.31452204549615     -3.91279633271575      0.02121119533889
  C   5.51222376143108     -3.37849175243379     -0.41960364603939
  C   6.49079993600770     -4.41876384575383     -0.25855803849347
  C   5.86552513337419     -5.49381515852338      0.27839488910465
  N   4.52615340941750     -5.17348631143185      0.44048024441067
  C   5.87100871616443     -2.03638067452283     -0.83619246923102
  O   6.95188006026273     -1.76163692321209     -1.28547176167252
  N   4.94573336680380     -0.94677515595189     -0.57451787698097
  C   5.52053347737740      0.28984575055334     -0.37082787146154
  N   4.92726596876020      1.32948221498018      0.06894227373108
  C   3.57416308139430      1.26501203623921      0.42450015612631
  O   3.00798309994093      2.18640862330382      0.94941045626533
  H   3.31027919617695     -2.60369594839045     -1.84831836848425
  H   1.83921779478526     -2.16751747198659     -0.94402082790433
  H   7.53591413509675     -4.32145462224974     -0.49598310402632
  H   6.23916063242407     -6.45715085605655      0.57614190757284
  H   3.79536594582141     -5.78340613640591      0.76743025453307
  H   6.57679693364071      0.31909968566163     -0.60695510166833
