29
Coordinates from ORCA-job 9555optt
  Br  2.06945271059549     -1.06461770093929     -2.04352175749470
  C   2.63827784610981      0.12205799604871     -0.71015133996433
  C   2.49899327763334      1.43974715020887     -0.84105820978989
  C   1.79933309431427      2.26230652598832     -1.87259007187375
  O   0.49054528807121      2.61854795291418     -1.45246356683666
  C   0.28039731905246      3.60283659670768     -0.48549213271816
  C   0.39343487747814      3.19912211764548      1.00975958500196
  C   1.22586053821739      4.32099023647068      1.66161617692578
  C   1.14089484631146      5.40305454491212      0.57398571435983
  O   1.16103994908981      4.69233803412587     -0.64999511103351
  C   2.71751734101892      4.04011113089086      1.98171542980920
  N   3.07393406360292      2.67571762024367      2.32235127967086
  C   3.11722199267372      1.71133163137011      1.38153119285457
  O   2.95745213019751      2.26064174753513      0.15835662386943
  N   3.26456241428240      0.46552072540458      1.61842948381698
  C   3.21324287314817     -0.42931778720798      0.54219495398601
  N   3.55518573945048     -1.64621488422645      0.61544940810564
  H   1.66268145076784      1.68674338255835     -2.78293431399262
  H   2.39027822069416      3.15524991514959     -2.08264339848248
  H   -0.74217164242625      3.93763105037166     -0.69037105952087
  H   0.79290443271916      2.19671040180829      1.13885508303883
  H   -0.60531706218729      3.18551610015377      1.44426595861534
  H   0.73781214379889      4.65693800103625      2.57627076151247
  H   1.98108510863590      6.09677896652642      0.57543050479533
  H   0.20934551345083      5.97419521129514      0.66125011840161
  H   3.32338459385671      4.33759072820983      1.12697140640697
  H   3.01850906605890      4.66730275784632      2.82007689822474
  H   3.13530559875364      2.36571719155098      3.27702113019690
  H   3.89283627462997     -1.84354734459919      1.55668925211452
