27
Coordinates from ORCA-job 9557optt
  Br  0.97528420625205      0.22650891824591      0.08339662735093
  C   2.85418684718615      0.37585262055532      0.10087141489117
  C   3.46995244279838      1.60089753536263      0.11388920499287
  C   4.86445891345618      1.62424792258546      0.09293570437376
  O   5.37582765969061      2.86912556640112      0.09523890066630
  C   4.31033374162646      3.82161850944376      0.04830269867217
  C   4.42323085472910      4.83307922885642      1.16873558635119
  C   3.08833923646170      5.56961287376880      1.23086494712696
  C   1.98621279090292      4.59050822712067      1.64874747774578
  O   2.33270907718972      3.23023666043285      1.37081146223336
  C   2.97774638988585      3.01213882803659      0.17386489263000
  O   2.02802383229535      3.37009919220263     -0.85120476718044
  C   2.31749903257898      3.11960885236476     -2.13129489822629
  O   3.34261255934917      2.66782331919055     -2.54350495622929
  N   5.65375183305333      0.58031520933161      0.07992518597365
  C   5.02712623348698     -0.60099618924299      0.07437103466403
  C   3.65115280438079     -0.76646591921345      0.07891473369426
  H   4.35076092360613      4.31588405700817     -0.92311115403144
  H   5.25391638838663      5.51095650743162      0.97772101340653
  H   4.62014609802717      4.31023088155149      2.10656622480610
  H   2.86738024431484      5.99516369575618      0.24856978008667
  H   3.12576872583703      6.39853423812556      1.93632474372723
  H   1.03757478667013      4.82491195116640      1.16363183639406
  H   1.84126844836762      4.61055941555903      2.72748273029180
  H   1.46061539801252      3.39914988458097     -2.75580385668568
  H   5.66736373663653     -1.47563688120932      0.06195098520700
  H   3.21075679481762     -1.75196510541278      0.06280244706732
