25
Coordinates from ORCA-job 9559optt
  Br  1.16229571816421      0.28879578336085      0.12315155113330
  C   3.00687737040635     -0.01793845933464      0.30472823223361
  C   3.59815333783897     -1.23420642156183      0.30724362178115
  C   2.80201805574982     -2.51480663303296      0.25928898000801
  O   3.16733629382521     -3.40189947567392     -0.77340554804050
  C   4.35136754111527     -4.15646825937090     -0.59744933574379
  C   5.59167593383313     -3.33613256115947     -0.89652255985590
  C   5.93648571723935     -2.38833729075575      0.24796128684662
  C   6.06352006726246     -3.20037836027167      1.53363576575265
  O   4.99160172411803     -4.11113874858542      1.79095037416747
  C   4.34459739259796     -4.77201343005023      0.80854870860177
  O   3.69610105387747     -5.73625767068612      1.07325743848178
  C   5.04344453982128     -1.16925696154506      0.38748826558180
  N   5.70386906439931     -0.06767417452271      0.56277409495246
  C   5.05312488425063      1.13172498785463      0.69911660123194
  O   5.52870004434474      2.17824513237503      0.98319301622216
  O   3.66124238685931      1.11765175012503      0.43647362881664
  H   1.76024913046480     -2.27455547840251      0.07074938661886
  H   2.84463764265683     -3.01023420492674      1.23465071228638
  H   4.26161943095416     -4.98764209414994     -1.29468422990124
  H   5.44088398377989     -2.80052590571125     -1.83452191121835
  H   6.43860953899668     -4.01378536873150     -1.03582356391136
  H   6.92547009635555     -1.96263747405063      0.07726486943704
  H   6.98537839047830     -3.78448790445046      1.48363114684606
  H   6.11374066061022     -2.55604077674176      2.40929946767143
