23
Coordinates from ORCA-job 9563optt
  Br  0.98916984399255      0.16354501080355      0.01740227359579
  C   2.88544298303989      0.09059434249907     -0.05957284838725
  C   3.54898892883629     -1.12588037721754     -0.05064348446018
  C   2.83972472884957     -2.45523450028336      0.03544997974890
  O   3.53953415092147     -3.50187351251759     -0.64043018072044
  C   4.85131142163607     -3.52953939440569     -0.34349145785465
  C   5.60512666564606     -2.43605767410990     -0.02765521921020
  C   6.97272812219857     -2.78892304349591      0.17955425012175
  C   7.19819633725494     -4.11470509765603      0.01013295873943
  S   5.76317861938220     -4.97926244361330     -0.39878261237014
  C   4.95892619045219     -1.12941075494718     -0.04205269052556
  C   5.65603620343854      0.06774254296062     -0.07594842551889
  C   4.96497041738103      1.27372135069026     -0.09818085265807
  C   5.70559936480980      2.55909915554235     -0.13115614028711
  O   6.90345145931529      2.64379019682426     -0.14043935132537
  C   3.57831177896714      1.29326042599121     -0.08538362642913
  H   1.85872094152608     -2.41414796407303     -0.42776039446708
  H   2.72256474804196     -2.73724988893692      1.08970196006385
  H   7.74843697024105     -2.08567823378318      0.44595839211078
  H   8.12804969522032     -4.64975009731476      0.10693060610463
  H   6.73839588876132      0.08722277991382     -0.08990290760294
  H   5.07082598866547      3.46531170392031     -0.14612519533749
  H   3.03930855142212      2.23242547320895     -0.09060503333062
