25
Coordinates from ORCA-job 9569optt
  Br  1.04424035480835     -0.06442978397063      0.78406439494144
  C   2.89791352075382     -0.09031867374789      0.48947862025953
  C   3.57985813824356     -1.26482264312090      0.22356718539436
  C   3.14248302276510     -2.66915183196369      0.05675652122104
  O   2.04407863743515     -3.14818999547662      0.06527303648801
  C   4.45138653734513     -3.47666925361508     -0.04360676824271
  C   4.47545327134146     -4.62659275297927     -1.04914908526034
  C   5.17011353068303     -4.17789924164409     -2.33073929485096
  N   6.47764916777780     -3.57391214975109     -2.09043210627151
  C   6.53033191791873     -2.73232064403113     -1.15334595618726
  N   5.47084795428221     -2.47438979788729     -0.27545986432129
  C   4.95745221727873     -1.21496310051897     -0.00370476451289
  C   5.60868988128058      0.01767503877120      0.02525441836316
  N   4.93964761456670      1.12686321545760      0.29599555699304
  C   3.62932878728246      1.09006641406157      0.53109415399640
  C   4.59987513399889     -4.06626302509976      1.37745803707096
  O   5.40906358909480     -3.70285217990125      2.17065738950067
  H   3.45146175150197     -4.95634068055378     -1.23511278706362
  H   5.02688652985136     -5.47138232227922     -0.62952995927023
  H   4.54930005765988     -3.43736511576023     -2.84766001937956
  H   5.29512756268070     -5.02201076253305     -3.00530644349660
  H   7.43475641301142     -2.15754695837603     -0.97436263134009
  H   6.67075284156160      0.11177051135071     -0.16537983935736
  H   3.13953939153786      2.02843143111788      0.75766034573978
  H   3.86576217533865     -4.86638569754892      1.58952985958605
