27
Coordinates from ORCA-job 9574optt
  Br  1.14095298814356      0.15878412701271     -0.22440875841972
  C   3.01800190523971     -0.08061365435648     -0.35858086707436
  C   3.58653832733666     -1.32303558484690     -0.09585913444577
  C   2.74709808526163     -2.53805112771617      0.25282852647646
  O   3.43054418911052     -3.73435390657931     -0.04747314673121
  C   4.67219785725807     -3.85152180792916      0.61505405011416
  C   5.34424243238664     -5.11167154269994      0.10835146586787
  C   6.12680374221966     -4.63515366042197     -1.09921234634198
  N   6.64311740134330     -5.26603588125505     -2.05268633345882
  O   6.25483053758639     -3.28473773983373     -1.03657846698795
  C   5.63414873684723     -2.76218791686612      0.14106948667772
  C   4.97022579041714     -1.44987689724605     -0.17637485860055
  C   5.75511706682448     -0.36410005258972     -0.54644412062524
  C   5.16888145909216      0.85763873489397     -0.82609981277016
  C   3.79272416190973      1.00644648260244     -0.72465054845104
  C   2.31624063130546     -2.49026764289789      1.66203775577802
  C   1.98718253342059     -2.44125423409782      2.81188609414436
  H   1.85800373036166     -2.54692277011063     -0.37926873292506
  H   4.52534279848735     -3.82734826437837      1.69783648886574
  H   4.62457429219161     -5.88593978665571     -0.14722103392494
  H   6.04211287450225     -5.50471677116921      0.84980643098102
  H   6.44920181860893     -6.25942725315462     -1.96693814121990
  H   6.41308570665381     -2.60211381792915      0.89403981405523
  H   6.82828830070894     -0.48934033496556     -0.61997376021137
  H   5.77803334799296      1.70252851920826     -1.11853165456799
  H   3.32064770027886      1.95701816589808     -0.93032367204627
  H   1.67986158451066     -2.39774538191585      3.82971527584175
