22
Coordinates from ORCA-job 9575optt
  Br  0.91530885135794     -0.00687276297815     -0.09527338337779
  C   2.78756930147382     -0.07797745089851     -0.10959391418000
  C   3.47700266165138     -1.27413089261267      0.01571376655477
  C   3.08450256158786     -2.68118600990639      0.20682262521264
  O   2.01914379719709     -3.19603896946684      0.37396687922312
  C   4.42810834469035     -3.44761220440910      0.18105680372020
  C   4.55028954409643     -4.49764929081817      1.26755154107400
  C   4.18472340866810     -5.78171689174941      0.55177623175694
  N   3.88049440228286     -6.91406603281400      0.96823908629713
  O   4.25099946665453     -5.57146306236068     -0.81365929097702
  C   4.47847367522177     -4.27260341507635     -1.11617746589962
  O   4.66593768912838     -3.86268202838400     -2.20935847065749
  O   5.44499451516167     -2.46418455165593      0.16829048820674
  C   4.86180770010036     -1.24998344336661      0.00496006938961
  C   5.54948607728104     -0.05304421932568     -0.13657910791796
  N   4.87321925240483      1.07762487379819     -0.26395477973246
  C   3.54041812143056      1.07971145963915     -0.25553715919074
  H   3.89168428447080     -4.32486709983652      2.11607496495355
  H   5.58470354046113     -4.55402729878925      1.60989273622068
  H   3.86899377182805     -6.94141629445034      1.98456510639310
  H   6.63145020308671     -0.01412159038218     -0.14689880817801
  H   3.04868882976429      2.03730717584347     -0.37087791889138
