22
Coordinates from ORCA-job 9580optt
  Br  2.12805237050976      1.14649106436863      2.76263602663538
  C   2.87813955869176      0.94990966507875      1.03984792163622
  C   3.56106170620827      1.96082436111856      0.44594981201251
  C   3.28696158720998      3.43165603635906      0.69818621512293
  O   2.32365006822968      3.91122749663869     -0.29765481211484
  C   1.31649096754254      3.04105914802241     -0.44139125189893
  C   1.19022432714490      1.98066872517809     -1.26919043948950
  C   0.32606655667101      1.14422544848169     -0.51673716836135
  O   0.26829088044646     -0.20266910759732     -0.65054179467418
  C   1.13137130868828     -0.83771008513384      0.31950907066678
  C   2.54445922407927     -0.23584024718167      0.24745982703905
  N   3.28000486497848     -0.68335440193303     -0.70141057786103
  C   4.50319764560950     -0.13326084096457     -1.02731148169960
  O   5.44279967716431     -0.72621566175361     -1.45376973797642
  S   4.55528095476617      1.67964324378225     -0.93814075810033
  N   -0.16862320321608      1.72670563189972      0.53740547924840
  O   0.44955940450884      2.96332603507404      0.57685366659832
  H   4.16627535136298      4.05148839124716      0.54856283851879
  H   2.87442837374922      3.58433287287932      1.69283260309095
  H   1.79017591819671      1.72160854657829     -2.12201107932325
  H   1.18518762908300     -1.87993409546435      0.02134798587029
  H   0.69494482837493     -0.73518222667829      1.31056765505981
