26
Coordinates from ORCA-job 9584optt
  Br  1.00915501913489     -0.21125186325345     -0.68259538455152
  C   2.81877425218641     -0.22782515861184     -0.21363305518563
  C   3.60409057382361     -1.32578553003428     -0.16556507508962
  C   3.08668237668008     -2.73962956235624     -0.57879524387743
  O   1.94434321573133     -3.06676738821581     -0.65011049338909
  C   4.35420811621867     -3.49679023205738     -0.83243662861391
  C   5.06198853058208     -3.49830744193268      0.54589275324676
  C   5.99068624520852     -2.32945658992219      0.36045922885326
  O   6.79658217194020     -2.56035832028617     -0.81319531767624
  C   6.97967121751467     -3.91869522013333     -1.23131624888372
  C   5.85039599263533     -4.57494564377406     -2.08028148075710
  O   4.54667071762446     -4.70713330108937     -1.49291223618434
  C   5.03135120479543     -1.14888179536973      0.17949951279613
  C   5.46056562305527      0.08857317128269      0.43977530302927
  O   4.68457395322872      1.18096561065318      0.38715761213319
  C   3.34835362455062      1.12575972000750      0.07561359749832
  O   2.72879106488412      2.14153069268326      0.05843991435302
  H   4.85250125957343     -2.75378394341427     -1.45900551068216
  H   5.54631864396412     -4.45494888810890      0.70605701434494
  H   4.37972139807968     -3.33153431556211      1.37979068344758
  H   6.66253573083614     -2.13765072678637      1.19958159346712
  H   7.25770999090617     -4.54980201558620     -0.38483848727669
  H   7.84326875555365     -3.88343756251789     -1.89672430909990
  H   6.18063305317187     -5.57976333666251     -2.34283366277482
  H   5.74797858881771     -3.98655351097669     -2.99824192625212
  H   6.47744867930280      0.32747315202483      0.72021784712471
