27
Coordinates from ORCA-job 9587optt
  Br  1.45788558967091      0.41874169323583     -0.63457599453928
  C   3.24072180742780     -0.14940615762946     -0.51366954465491
  C   3.58147092215468     -1.40905650751434     -0.21582755120689
  C   2.56977576794736     -2.49791941703020      0.04695144082087
  O   3.16718297000071     -3.77075286724299      0.13223758863010
  C   4.29023939985142     -3.79527309793438      0.98202299735133
  C   4.64450568765251     -5.24830993652858      1.24325578520975
  C   5.33386628647415     -5.90772579548491      0.06988457875631
  O   5.20984672293130     -7.07422688755100     -0.18529494261542
  C   6.29442128389999     -5.02085662151189     -0.70419749052200
  O   5.81432635249433     -3.70779357654186     -0.89790596571988
  C   5.44102102743515     -3.05563285103723      0.29723876005235
  C   4.99931548328184     -1.66398485075403     -0.08396118475239
  C   5.88932129081357     -0.68258004879332     -0.29559414851931
  C   5.47236803621828      0.65356418644304     -0.68745094112910
  N   6.16477938463250      1.66416817626593     -0.97987372005770
  O   4.09659807597383      0.84800965362016     -0.73548488659946
  H   1.84350356002720     -2.54873624249965     -0.76310532787254
  H   2.02418603678218     -2.28048671644242      0.97540868473041
  H   4.05401685980385     -3.29031795194535      1.92950583177600
  H   5.35495380919418     -5.29324308814761      2.07608463424024
  H   3.76249923688561     -5.82398700002444      1.51867079692997
  H   6.47216298532822     -5.45558468287678     -1.68468676982177
  H   7.24379446310304     -5.00349438726573     -0.14555930407674
  H   6.30400037882635     -2.99799798095046      0.97677201722951
  H   6.95272314540592     -0.85890542529088     -0.19949746453436
  H   7.15451343578307      1.44578838143258     -0.91734787910507
