24
Coordinates from ORCA-job 9590optt
  Br  1.15533077353958     -0.11769588090086      0.32675539140246
  C   3.03777790772690     -0.10380751178436      0.12369934595334
  C   3.70460223332082      1.09563193439805     -0.05927737498955
  C   3.35919595115666      2.56311105388361     -0.04944951403588
  O   4.62834364672371      3.21775279497952      0.10802306164047
  C   5.66797228962626      2.35778439871377     -0.34189238557629
  C   6.93380778653810      2.37341011507038      0.50281026072662
  C   7.81281823201102      1.14483748531926      0.23603524481401
  O   9.01365055071943      1.18406061453566      0.30433462088697
  N   7.15945340625880     -0.05013528471138     -0.04335410957609
  C   5.77481997284403     -0.15068441716070     -0.07423215748330
  C   5.06101104327332      1.01283751577516     -0.21332649963125
  C   4.98915414781842     -1.28561080564402      0.10763723496340
  O   5.62544284206163     -2.49419573257344      0.30077089580571
  C   5.37999046765142     -3.48997831950060     -0.59579516458601
  O   4.78105822971334     -3.36683322813723     -1.60940740378733
  N   3.67622789027450     -1.25544567335886      0.18857572225101
  H   2.71928801880477      2.84391407687139      0.78623967579090
  H   2.88028120673070      2.87572228710411     -0.98305122081942
  H   5.91445341634222      2.57957144931989     -1.38960879864869
  H   6.64882458469731      2.33621674292694      1.55902691621170
  H   7.55276739624436      3.25238098316380      0.34535727484753
  H   7.73906749719518     -0.87633156198154     -0.07267807157932
  H   5.84566050872750     -4.41051303630856     -0.22919294458099
