22
Coordinates from ORCA-job 9592optt
  Br  1.16148131301971     -0.23166842582114      0.00032808061685
  C   3.03932130265055     -0.08926633650722      0.02121532722889
  C   3.69506848906813      1.08885755122523     -0.06438885836501
  C   3.04678644223415      2.42960324142627     -0.20132161883512
  O   3.79035193928978      3.43026386099355      0.49287873067936
  C   5.09472117208358      3.54433386301433      0.16620450188138
  C   5.65350013231618      4.77292042305737      0.21547111585804
  C   7.04360597712987      5.05611710257075     -0.07186311421246
  O   7.55784575089817      6.14575330784749     -0.04722626733393
  S   8.04581005561692      3.64576618615101     -0.52774592050157
  N   7.08909281471074      2.32752105025503     -0.45955894781035
  C   5.84207845490824      2.33179178124578     -0.15134339872096
  C   5.12929430662691      1.03299269782497     -0.06672565214591
  C   5.80408638698675     -0.13848913537051      0.02570601437788
  C   5.10355696089153     -1.40238896877761      0.11756817991781
  O   5.59751204378295     -2.50494530442222      0.20415278076711
  N   3.70492255286509     -1.26619706822855      0.10417390130516
  H   2.05386504044233      2.44621188500732      0.23825903164409
  H   2.96850010200454      2.72567711135265     -1.25327882875706
  H   5.03740866660079      5.62440962542204      0.47718161007603
  H   6.88373991079001     -0.16793336694615      0.03745325933312
  H   3.18945018508304     -2.13333108132040      0.17586007299666
