26
Coordinates from ORCA-job 9593optt
  Br  1.22913752765496      0.05819956114420      0.41717779030092
  C   3.09730177006130     -0.04130431780178      0.16133953030858
  C   3.82950690293599      1.11817274541219      0.01659372671748
  C   3.46893777166107      2.57660251636014      0.05411816063368
  O   4.72572047981728      3.23719363397334      0.16113259084065
  C   5.74322618289143      2.40537154138651     -0.38922936385401
  C   7.11525534707769      2.67382071657279      0.24797005719279
  C   7.75075695304858      1.43902526393712      0.88565194985022
  S   7.63154551542900     -0.01009975153585     -0.15750323214912
  O   8.07010411849915      0.36905237922875     -1.47281833326649
  O   8.23381676883100     -1.11963763383622      0.51976741222665
  C   5.86093928784516     -0.18175168895247     -0.16505821843567
  C   5.19173116694075      1.02302173577431     -0.18775447752258
  C   5.12452039129399     -1.36568466675956     -0.01712123221189
  C   3.73438943415046     -1.27524584032455      0.12756570636699
  C   5.72558209767708     -2.66150903661737     -0.03757118354172
  C   6.18143993445506     -3.76766664599821     -0.08529679930349
  H   2.85531743528363      2.84481311292161      0.91436256775511
  H   2.94184666262180      2.87856191260220     -0.85914683267936
  H   5.81363984656064      2.58299099882588     -1.47014912386184
  H   6.98666035798542      3.44274696097549      1.00981585376450
  H   7.79054291332444      3.06418131372081     -0.51023520040597
  H   7.29480442838986      1.15940527396391      1.83484495592089
  H   8.82320056060508      1.56872431313617      1.03527194580958
  H   3.16116753718732     -2.18549809298435      0.23288583431310
  H   6.60990860777173     -4.74048630512507     -0.12961408476900
