22
Coordinates from ORCA-job 9595optt
  Br  1.04395746497727     -0.39802431803799     -0.63652366092451
  C   2.92072699739822     -0.34056718174552     -0.39290442060770
  C   3.61289190761808     -1.37236604860300      0.12996620538830
  C   2.92730034744453     -2.57618382155656      0.71888555356113
  O   2.99675627760826     -3.73455698175292     -0.11689987477055
  C   4.22872282044393     -4.28071585663541     -0.12989583231855
  C   5.39811573935777     -3.72969784529935      0.18997119132786
  N   5.75196287244635     -2.44141248124995      0.57977333806257
  C   5.07173001267674     -1.28941693986453      0.19682930877723
  C   5.78599551904539     -0.16340759801304     -0.03713891524591
  C   5.24681333487646      1.11919592592697     -0.42033697739230
  N   5.84877157726442      2.22966819698772     -0.54098132983139
  S   3.53746478991608      1.18158761149632     -0.91158316767393
  O   6.47718403717798     -4.57425951676597      0.14171248686775
  C   6.15944678713718     -5.84547747719484     -0.24824241599626
  O   6.97061819525302     -6.70296386903567     -0.35346523645656
  S   4.42061407993759     -5.97085139695480     -0.55662008691962
  H   1.87100265637290     -2.38393630605285      0.86158857116651
  H   3.38050810162408     -2.81889141415012      1.68392168529940
  H   6.74973390939100     -2.33624690322330      0.69349373664580
  H   6.86679691205353     -0.20090632285648      0.05213458118328
  H   6.83588565997915      2.14443054458131     -0.30368474014255
