21
Coordinates from ORCA-job 9597optt
  Br  1.00722879288928     -0.35866411242604     -0.38490052455399
  C   2.87804465623332     -0.26451773896029     -0.16948495514425
  C   3.58119526477035     -1.29134904233863      0.34847911243762
  C   2.90464782994867     -2.50558878289606      0.94160045141571
  O   2.87949754236871     -3.62337876608333      0.04852854380890
  C   4.11388160649147     -4.10547270061141     -0.14714419089273
  C   5.36008769794521     -3.61039806259317      0.13126992742027
  N   5.72939455054616     -2.39261099849188      0.71730105479582
  C   5.05237383607166     -1.21602479850053      0.42834306206937
  N   5.75238928890482     -0.14992274992323      0.32087333460701
  S   5.09598300173855      1.32115405460993     -0.02844043231196
  C   3.46887985819793      1.01150970593308     -0.62290212407257
  N   2.80494969880960      1.84630499548655     -1.30513694141975
  N   6.27299183230065     -4.52496797084320     -0.26810060259980
  N   5.66800408397102     -5.54823353695641     -0.77095317854614
  N   4.35673253695927     -5.30433176428802     -0.70859887583359
  H   1.86848159528847     -2.28982399092895      1.16994615435575
  H   3.42854476873821     -2.79669387941166      1.85488805970423
  H   6.73235272855372     -2.26917242585153      0.77375549469694
  H   3.35304386226711      2.67074006073158     -1.54884599759566
  H   3.69229496700577     -5.97655749565680     -1.05647737234119
