17
Coordinates from ORCA-job 959optt
  C   0.96890818591792     -0.01739490038018     -0.00447077972877
  C   2.48328229550599      0.04395320066530      0.05565865538968
  C   3.10535206261331      1.15317953209964      0.90622117466278
  C   4.53217165831054      0.65319171783896      1.17682821182820
  C   4.34921973108575     -0.84490878201509      1.42879859189258
  C   3.11298130800219     -1.22495254798972      0.62330339052088
  O   2.68622158942578     -2.33749554081471      0.47829979744330
  H   0.64687959897756     -0.88717968989157     -0.57611130916372
  H   0.55838805752260      0.88019879951260     -0.46767480183157
  H   0.55170096428660     -0.10468112965619      1.00046889486956
  H   2.88996535862882      0.12730696951863     -0.96163123551002
  H   2.55450338091661      1.23615206039028      1.84852406051330
  H   3.07850988485484      2.12772861280201      0.42022400168716
  H   5.14830070280833      0.81084820959173      0.28880178691170
  H   5.01220638525528      1.16999504340722      2.00585093574210
  H   5.19616976382923     -1.47439709407247      1.16023302223332
  H   4.11523907205863     -1.04454446100642      2.47867560253953
