25
Coordinates from ORCA-job 9601optt
  Br  6.52088979380797     -4.95607759651303     -1.40411335578556
  C   5.10666845712039     -3.91985957644951     -2.04288444361629
  C   4.53442856418548     -2.93114331751010     -1.34030050951928
  C   3.34165468855377     -2.31235028057403     -1.95228942149625
  O   2.58293838753009     -1.43194411532608     -1.25008128645309
  C   1.55191445391480     -2.01233448444843     -0.41110690887325
  C   1.42775809384253     -1.07793161243948      0.80064107922376
  N   2.69346555962123     -1.31231943966539      1.52256305025073
  C   3.12854754105883     -2.42678517632424      1.11447311419941
  C   2.14953582663816     -3.22417829285932      0.27997918448046
  N   4.48982911168594     -2.79318041054894      1.18298235195504
  C   5.14921626812249     -2.47442643799427     -0.03474260398525
  N   6.25219334982667     -1.87595517047009     -0.13592966937484
  N   2.92639593174324     -2.55627959451966     -3.13091082993221
  O   3.64769443089620     -3.43533665268001     -3.89947772744302
  C   4.62613720901037     -4.25360108514729     -3.39208402762077
  N   5.09743273174421     -5.19109587127901     -4.08237647305028
  H   0.64940291022896     -2.17362632462807     -0.99847744668615
  H   0.54731640465094     -1.32796263705323      1.39907211992699
  H   1.37826405820714     -0.02808481184485      0.51817886431172
  H   1.41426290612425     -3.68819948026721      0.94163341387729
  H   2.56863203763653     -3.99698939677303     -0.35568499177364
  H   4.94359408462772     -2.30196321074708      1.94786529123465
  H   6.62944807839418     -1.58545178007646      0.76582005031923
  H   4.63637912082787     -5.24192324386114     -4.98974882416939
