23
Coordinates from ORCA-job 9603optt
  Br  1.54876896954679     -0.15518395412234      1.78707935230767
  C   3.01955158988779      0.02216915693890      0.63134074657091
  C   3.64496537437433     -1.06961890869022      0.08593665378728
  C   3.66686152869190     -2.56821812098870      0.31992607338418
  O   5.01954851162608     -2.96155203904042     -0.00782187276349
  C   5.52034365746789     -2.05928006357314     -0.98631690842821
  C   6.96391688504090     -1.49490380267354     -0.82703079412366
  N   6.84436966748168     -0.00546850311463     -1.05092865804361
  C   5.49133121157271      0.31080293136859     -0.77595858889060
  C   4.84614433001893      1.44981000537611     -0.27243835608326
  C   3.59814940437156      1.29167183965986      0.38052947564352
  N   3.09782719750228      2.48219366353866      0.85986817049729
  N   3.82616127555791      3.48129084848283      0.64401911884523
  S   5.26302281928437      3.09748848727197     -0.18125523872103
  C   4.75824643090841     -0.82847997110200     -0.69444543878346
  C   7.95829060395125     -2.07871150480358     -1.71479506451141
  C   8.76688233168915     -2.54602739727096     -2.46335012685604
  H   2.95991208082953     -3.09826831331279     -0.32611365270037
  H   3.47401641263919     -2.83698908481178      1.35690894459602
  H   5.36876410834111     -2.46487535327503     -1.99380902458293
  H   7.26099688427096     -1.64343207247716      0.21511378885664
  H   7.21020029007487      0.28894698078914     -1.94876868619517
  H   9.48872843487039     -2.96636482416975     -3.12268991380551
