26
Coordinates from ORCA-job 9610optt
  Br  7.87784798727489     -5.76739314334584      1.63743949078927
  C   6.07033240735883     -5.70732396265811      1.09133906330534
  C   5.39611888923349     -4.49754247350351      1.01515204103665
  C   6.06669280567888     -3.18792840241925      1.32193943288026
  O   5.16742250857798     -2.10425024025030      1.40113871564977
  C   4.19461926483514     -2.05229667246942      0.38628008915487
  C   3.39312902675517     -0.75983243472616      0.58519392638499
  N   2.59623760944242     -0.75447232640768      1.79183627703515
  C   2.22619588005363     -1.87504663866434      2.25124156722036
  N   2.45492023964311     -3.10931382445941      1.69971830722772
  C   3.26349252071982     -3.27293665549847      0.50506824370317
  C   4.07269957483587     -4.54091054084262      0.58737977533082
  C   3.51055201890704     -5.76855777129360      0.26158588219701
  N   4.16095090399500     -6.92206921816027      0.35193863203272
  C   5.42071479380087     -6.89034498547329      0.76487998153443
  C   4.82292542000219     -2.04660535936585     -0.95295007542999
  N   5.30179585962533     -2.04832571389330     -1.99377232655884
  H   6.83116151837018     -2.99931439402850      0.55643845279475
  H   6.57024686694302     -3.23698618539567      2.28674116775186
  H   2.75518467082992     -0.60660889697492     -0.28984269289827
  H   4.10143458950650      0.06818297796531      0.62349592364815
  H   1.65211934930793     -1.90482686566583      3.17415789702363
  H   2.32414784722053     -3.91817114286654      2.28390923458256
  H   2.62673541751600     -3.30639725924604     -0.38499727591144
  H   2.48522641778322     -5.81463533523497     -0.09409914403950
  H   5.94509561178292     -7.83609253512136      0.83678741355453
