24
Coordinates from ORCA-job 9612optt
  Br  1.09754165576078     -0.21770413127659     -0.27935550600991
  C   2.95769777849792     -0.04949529386101     -0.09012187174167
  C   3.60874221775869      1.12379511371604     -0.09645524097953
  C   2.96499568167367      2.47372860123410     -0.23243246482883
  O   3.63636441416974      3.42279605879692      0.58291542624628
  C   4.96608974852318      3.53908593386673      0.28070949117030
  C   5.56858727908223      4.74042082013687      0.28137304955617
  N   6.91513468261626      4.84121713266161      0.03987694952549
  C   7.75268616372949      3.77015705810119     -0.26265293553387
  N   9.00337464681670      3.84895527481372     -0.51986378327605
  C   7.07214363562573      2.48495804140288     -0.26285706694892
  C   5.75449149547655      2.36072548116223      0.01200267250978
  C   5.04715201769899      1.06462868419739      0.03513092194943
  C   5.67370757395824     -0.12157880965529      0.19230889957242
  C   4.94029637536855     -1.36773841012526      0.19127956459756
  O   5.37064148657650     -2.47255415918416      0.30681864073926
  O   3.55126426523694     -1.23181445846319      0.03064611158377
  H   1.93249514664739      2.45395029174251      0.10461758081299
  H   2.98979744861188      2.81090497047871     -1.27567830958870
  H   5.03147231946743      5.65445748512770      0.48625779068025
  H   7.33418317369133      5.75726989223790      0.05450064356272
  H   9.35174245276026      4.80438110268799     -0.48502740924090
  H   7.69122295553800      1.63431186715169     -0.51068205274044
  H   6.74017538471348     -0.20685854695070      0.33768889838240
