26
Coordinates from ORCA-job 9614optt
  Br  1.05422925528857      0.43415131552269      0.54389203847909
  C   2.90507019531168      0.13617906668044      0.33715222890773
  C   3.46958009063958     -1.14521148048267      0.39416397152737
  C   2.71570731839591     -2.39563942970493      0.69870658659984
  O   1.67968678374170     -2.42284458768773      1.30616865942735
  C   3.40276737637927     -3.68016886901297      0.23015129263545
  C   2.63348369259860     -4.94999071860638      0.58387470759009
  N   2.91575904025648     -5.74443103854790     -0.60016547966145
  C   3.16087605360717     -4.91428236176842     -1.68310115742137
  N   3.20779573300217     -5.13501972614774     -2.91926731910321
  O   3.41233296328802     -3.66349791180123     -1.20171909396088
  C   4.83774317752964     -3.66764318954775      0.74339129397056
  C   5.60256777845719     -2.50618068600961      0.12706426770315
  C   4.84835951005739     -1.20772022081402      0.15089484608327
  N   5.57019294902380     -0.11280637602499     -0.08746181515723
  C   4.92052868307412      1.03686891778545     -0.09872474021238
  N   3.61601389847847      1.21407694630427      0.09502021649816
  H   1.57207376480384     -4.73433375207407      0.71795141579165
  H   3.02591725997301     -5.41581705151519      1.48725121684333
  H   2.36743034582448     -6.56953684223009     -0.77921923706585
  H   2.99242801093095     -6.10258091196386     -3.13508545706265
  H   5.31352132525656     -4.61855852722305      0.49620838899332
  H   4.81227853994548     -3.58129679849406      1.83373497539423
  H   5.81605757035765     -2.72049297814144     -0.92338525635264
  H   6.56315878371351     -2.34653505241048      0.61563655339450
  H   5.50243990006469      1.93131226391577     -0.29013310384142
