27
Coordinates from ORCA-job 9616optt
  Br  1.61346454922073      0.64179879369448     -0.58999804937751
  C   3.31184332504509     -0.14407684951994     -0.20209644714882
  C   3.35701526585402     -1.62219283144203      0.08256515984536
  C   2.38408908258652     -2.52122527688121     -0.73342283540405
  O   1.84021773378161     -3.45033377592995      0.19173378383993
  C   2.66913064389171     -3.43248254378566      1.32083597256119
  C   2.91045593964378     -1.94179085391167      1.52473874834678
  N   5.74431960113504     -3.44143629386749     -1.90351188040231
  C   6.12975453690987     -3.50164290373047     -3.25898868853084
  O   6.73061840750644     -2.63807818999967     -3.82868508377303
  C   5.18080908140001     -2.38561636414752     -1.50972020270906
  C   5.02900416575968     -3.34840332989137      0.85882091995454
  O   3.86292163453652     -4.12491763957705      1.04492729670281
  C   4.82927083400031     -2.12465532997405     -0.05761927794263
  N   5.83309603928640     -1.13883653819144      0.34829870506457
  C   5.52686295053974      0.08261653467134      0.28250350752667
  N   4.28740066509116      0.64229771270355     -0.12629139942909
  H   2.91094305840224     -3.05878637698153     -1.52395443751292
  H   1.56698432816168     -1.95639965242481     -1.17376488190515
  H   2.14636624262816     -3.94955437342775      2.12223860535423
  H   3.66369035824808     -1.68707301817249      2.26752353466122
  H   1.96829738240182     -1.45361610858118      1.76836002305018
  H   5.86263781096659     -4.45741809572206     -3.73114541088730
  H   4.96162209625187     -1.56269643850314     -2.20283034806657
  H   5.40349945521910     -2.98050857629668      1.81698229156242
  H   5.77737897936497     -4.00799228551794      0.42746187512178
  H   6.26230583216680      0.82902060540777      0.56303851949761
