23
Coordinates from ORCA-job 9617optt
  Br  1.13393254934689     -0.15996165173425     -0.17359251509087
  C   3.00562420510281     -0.03658864793267     -0.04130509813369
  C   3.65142498933081      1.13789146517731      0.10027463417345
  C   3.00782487446356      2.49853811116867      0.14513604221794
  O   3.76483194793471      3.40782684474341      0.91829652033209
  C   5.05407812202637      3.48746080089433      0.48250592728510
  C   5.69300556661644      2.35340104877069      0.10613619203315
  N   6.96462475770930      2.44379708523936     -0.37998863290200
  C   7.65557125843785      3.64884671651377     -0.46651965511618
  O   8.78224954528063      3.70902376821770     -0.90348327833616
  C   6.86296463280589      4.78637749077078      0.01938693227316
  N   5.64816394667216      4.69612445414560      0.44393134145282
  N   5.03249562418245      1.11817872562117      0.15225535959201
  C   5.73267288702402     -0.11181841448028      0.37841362681848
  N   6.86938242014347     -0.20017450106071      0.92625916746865
  N   5.07594765605977     -1.24716034235843     -0.07374492183738
  C   3.80578243563147     -1.21466018152622     -0.23680424087904
  H   2.02653835324482      2.42249886460962      0.60543119422948
  H   2.89092250530992      2.87738322758539     -0.87820440717245
  H   7.45583307625934      1.61322050102159     -0.69214808987424
  H   7.35055130463809      5.75408755778834      0.00239595055391
  H   7.20187970224355      0.68127183382649      1.30572803584661
  H   3.31269763953562     -2.12656475700169     -0.56336008493484
