25
Coordinates from ORCA-job 9620optt
  Br  1.07504952527939      0.04585544034975      0.14602851573207
  C   2.94101418659967     -0.06560783778936      0.03282412008448
  C   3.61829272812793     -1.22323532177406     -0.07777800509126
  C   3.24327959420871     -2.66621040095770     -0.10659184393237
  O   2.80690249800816     -3.04118232600965      1.17707828530501
  C   2.28036526922230     -4.29657247033836      1.26687960416735
  C   1.38998433341110     -4.69976031506126      2.23229776790676
  N   1.14585633989167     -6.00329573621558      1.96954852216473
  N   1.80019692688069     -6.46281004817752      0.90913087440550
  C   2.50789598950897     -5.43457071155029      0.46557756058356
  O   4.44106245059484     -3.31521202159556     -0.47329214422594
  C   5.57469256583675     -2.51612857331298     -0.15269869986463
  C   5.03929746589567     -1.11089756782576     -0.09125018953031
  N   5.73726206629981     -0.03398011887635     -0.03805230736903
  C   5.04200737888277      1.17214338162279      0.02595496581607
  N   5.54311406376269      2.33417308072806      0.04769590850920
  N   3.62722350191265      1.09089076037815      0.07363640307912
  H   2.48251556493579     -2.94816254302258     -0.83895786061276
  H   0.93869987518151     -4.17150111290726      3.05337670867259
  H   0.54181551294476     -6.62423474123483      2.47885834705159
  H   3.15534882632349     -5.53726869766700     -0.38904453277796
  H   6.32756221503377     -2.64426863735656     -0.92819946280018
  H   5.99806242701823     -2.80058210844861      0.81490802070924
  H   6.55577709022317      2.26529381451221      0.01513651142128
  H   3.14772160401550      1.97712481253035      0.14093293059588
