26
Coordinates from ORCA-job 9623optt
  Br  1.42472918657979     -0.42360394036861      0.66221164283485
  C   3.28102998345506     -0.11652400866184      0.40860189719030
  C   3.73168711586063      1.16877276085668      0.18217626473665
  C   5.08893750624093      1.33025629080212     -0.04156619343194
  O   5.44021159424596      2.61133861570277     -0.29133859807358
  C   4.31421183032883      3.44056583781337     -0.00682519200913
  C   4.53630793530758      4.17301476896256      1.31091745407988
  N   5.60506800622254      4.20939194618895      1.96641732146900
  O   3.47097768718421      4.88083847416117      1.74006589864144
  C   2.17957236361414      4.45314885615579      1.30100243367571
  C   2.13545194129431      2.94217509408976      1.19748848423182
  C   3.04898909617290      2.51015202538787      0.03501360471761
  C   2.32023202471844      2.58111006165758     -1.23583384652287
  C   1.71530751344469      2.65401702883754     -2.26644817522780
  C   5.95688790548650      0.25508850012616     -0.02168756392465
  C   5.37396271291445     -0.97744551893116      0.23522971827713
  N   4.07076681832496     -1.16757171035591      0.44601839070508
  H   4.22542366093307      4.17837065870624     -0.80421493024023
  H   6.32378346832317      3.67085809568239      1.48910831933355
  H   1.93903722192739      4.91553965378207      0.33769429707292
  H   1.48209628533710      4.82775037415643      2.04627256188911
  H   1.12054278594305      2.59071816061834      1.02697735234245
  H   2.49843222211061      2.50802539765176      2.13210347888430
  H   1.17682917517891      2.70372525190783     -3.18308975769383
  H   7.01712713113771      0.36560065264987     -0.19326786962014
  H   5.98839682771301     -1.86931332757977      0.26997300666237
