22
Coordinates from ORCA-job 9624optt
  Br  1.04068356986170     -0.04676298819743      0.33109715615890
  C   2.92399858078316     -0.10872003021646      0.13580245205555
  C   3.63630233933685     -1.27970972669605      0.40076298707402
  C   3.02541288947168     -2.62064805623158      0.70586777799614
  O   3.23770136853760     -3.45457164241136     -0.42748468578425
  C   4.22827539635272     -4.42278517611295     -0.32458142201856
  C   5.68619250929051     -4.00513869723026     -0.01508355381887
  O   6.05652001771215     -4.16142051327924     -1.38792564708802
  C   4.82150864088212     -4.66458060393329     -1.72164285768131
  O   4.46370176608234     -5.08514528882182     -2.75761464370451
  S   6.15557851902003     -2.44115996774412      0.74847982216158
  O   7.46033292364740     -2.12391091564407      0.27979988072454
  O   5.87683995208095     -2.65680686113399      2.14232476896450
  C   5.00839674781233     -1.13023598424319      0.23349238352479
  N   5.60707374976873     -0.02814709558384     -0.15941137142481
  C   4.80929444302737      1.00677370031574     -0.39446973627318
  N   3.49081614528317      1.01401680294264     -0.24981656216266
  H   1.95225013574021     -2.52881098006969      0.84518211166943
  H   3.46454988555223     -3.05116986577285      1.60840495089101
  H   3.89808530981948     -5.30692598653681      0.22486637733653
  H   6.22292811352909     -4.70922739701973      0.62650218497537
  H   5.27255699640809      1.92608727362038     -0.73055237357618
