25
Coordinates from ORCA-job 9626optt
  Br  2.50759544790448     -0.42831189675264      2.66162522922618
  C   3.56668287777161     -0.13894935419218      1.14580011445363
  C   4.14293829315270      1.04767020243128      0.82193377791255
  C   4.51206606348349      2.22776702345587      1.73814813224253
  O   4.23828277272468      2.34713404534910      2.89220949711420
  C   5.32269564474692      3.14291730471179      0.83595858847718
  C   6.36959778236846      4.21694879462467      1.00836845748458
  O   6.80949534895156      4.40529235328093     -0.35480616234637
  C   6.25363702906028      3.40458669689179     -1.23024997380789
  C   5.94909305661626      2.27462609537573     -0.25468376424068
  C   7.25094498823610      1.46228849585973     -0.00391254083563
  N   6.95535887615205      0.20220154297561     -0.74975032320495
  C   5.61749111968480     -0.00202170751338     -0.60733591674297
  O   5.09794170344866     -1.19437032194262     -0.42228133168470
  C   3.86447051258290     -1.31720542599266      0.33512368786462
  O   3.33094179452627     -2.37127938632993      0.28603017522213
  C   4.95029430469208      1.16011911287934     -0.34790970603412
  H   4.48879511564610      3.63704363273732      0.31009835381325
  H   7.21307065586813      3.89377491738795      1.62414907918164
  H   5.98760717802599      5.16221406956528      1.38908605553460
  H   7.00668939871164      3.16812163880522     -1.98005630327680
  H   5.35265106560534      3.77776026520153     -1.72404751956412
  H   7.39848021935116      1.23101699632495      1.05802084893623
  H   8.14004595877070      1.95191117256472     -0.39429672352069
  H   7.56713279191755     -0.59425626769943     -0.64822173220439
