18
Coordinates from ORCA-job 9639optt
  Br  1.14260457269634      0.30477851214694      0.09021876117380
  C   2.99055642255363     -0.00439674108536      0.07917614682322
  C   3.55132776929761     -1.26130052499205      0.07302293193127
  C   2.70039650149783     -2.50287589628307      0.07296064554229
  O   1.48432209600259     -2.51204150670035      0.07262893972305
  C   3.44864401153089     -3.73417106347033      0.07282288223956
  C   4.79818394642029     -3.79480253511991      0.06913264097039
  O   5.33234580431510     -5.03139614337401      0.06915972228633
  C   4.36937443178704     -6.02957942478350      0.07385728278506
  O   4.65974337600372     -7.17502025177904      0.07611259242939
  S   2.74504691090318     -5.32209874501804      0.07596027092055
  C   5.61464893392238     -2.63297033989746      0.06529713948372
  Br  7.48066306005213     -2.84294994314234      0.05747504414682
  C   5.00755546566573     -1.41278192543200      0.06756222993194
  S   6.06134760973425     -0.02151063880870      0.06414390451860
  C   4.92729854021535      1.25314797599787      0.07250019674140
  N   3.65133010711507      1.19207539721411      0.07902482852450
  H   5.39661044028683      2.23389379452727      0.07194383982811
