22
Coordinates from ORCA-job 9640optt
  Br  1.02681334045117      0.14338405832840     -0.03946908019939
  C   2.88737998025856     -0.02104712934404     -0.02967349243220
  C   3.56309655225297     -1.17826626322240     -0.01842975472807
  C   3.03427334453988     -2.57630030663853     -0.01112411636051
  O   1.88153114707492     -2.93946118142238     -0.01087164947990
  C   4.26365888345965     -3.38547411571643     -0.00463578923166
  C   4.41765359896288     -4.71173942809072      0.00139938758506
  O   5.61880194976864     -5.29419842595892      0.00507153836878
  N   6.79362871403769     -4.51488059503854      0.00244190405951
  C   6.68153135362443     -3.23888181580330     -0.00281009634470
  C   5.43053815268605     -2.51842460780543     -0.00688859308276
  C   5.03788252766189     -1.21425202546771     -0.01435252661117
  C   5.69592874046085      0.08127669017039     -0.01988023281356
  C   7.14195552019183      0.30407713680452     -0.01350087757100
  O   7.97919350001725     -0.56189443685881     -0.00137988197213
  C   4.93152527676189      1.20187675112227     -0.03058300098629
  N   3.56917122645234      1.17648241398131     -0.03562380675842
  H   3.60839311183821     -5.43090377914036      0.00387072042210
  H   7.63015067736780     -2.72059303138065     -0.00433502623595
  H   7.43849305194383      1.37043354634163     -0.02012084603371
  H   5.37756053415366      2.18774880764404     -0.03565015662865
  H   3.04083881603356      2.03403773749569     -0.04445462296537
