23
Coordinates from ORCA-job 9644optt
  Br  1.16644137965404     -0.54270911317473      0.35732769083009
  C   2.94179673034402      0.05491320525189      0.25094018024977
  C   3.32286413871140      1.28837206992637      0.61918201624273
  C   2.51995645160977      2.46934868386397      1.09290080926422
  O   1.34606783132275      2.53784743257796      1.32238407350707
  C   3.55302851317799      3.53296099628466      1.32109261157850
  C   3.54244373926386      4.83499328019500      1.64552132645667
  S   2.76539938351319      6.01105127254852      0.58862253229243
  C   4.25426112136879      5.87378991780498     -0.37354046013837
  C   5.32508994891827      5.05862670308928     -0.35770040257615
  O   5.72823384483389      3.92781532170703      0.37237098042290
  C   4.79291978736478      3.03199025004519      0.78875591450363
  C   4.69042083015940      1.73679928684157      0.37960006882916
  C   5.63836302229604      0.90102145654965     -0.36739193193526
  N   6.81457038241996      1.22783603249425     -0.74648903290595
  C   5.15591590356869     -0.46122417038642     -0.63334918196490
  C   3.91299265188368     -0.86195693572626     -0.32805153838118
  H   4.48000760968096      5.23699978257921      2.01791298686267
  H   4.34545471066334      6.67985687983585     -1.09392198206401
  H   6.12869373592292      5.29735798208198     -1.04055980481309
  H   7.02795250962787      2.19150626516506     -0.49285793828945
  H   5.86514896027964     -1.13343123174405     -1.09834236565441
  H   3.58697681341469     -1.87076536781097     -0.54340655231709
