24
Coordinates from ORCA-job 9648optt
  Br  1.12301355401546     -0.14974552418894      0.46090724661693
  C   2.91109526117026     -0.03302040490163     -0.15765602845483
  C   3.65536499256699     -1.20947159347790     -0.30981754198680
  C   3.70569148259980     -2.54004046310509      0.44112971884596
  O   5.13403545865476     -2.82729156067853      0.61434279655603
  C   5.82317535954843     -1.80559900655682      0.05983971593936
  N   6.94454778416164     -1.26819744746162      0.35871945507610
  C   6.95876247076903      0.04489991993958     -0.35712369140694
  C   6.95377734293397      1.32661522720646      0.53065537549576
  O   5.82204030739125      2.16499820130076      0.09660278293788
  C   4.93001847084750      1.29306283214129     -0.46393028077290
  C   5.56188491159490      0.17953975589716     -0.91259694395232
  C   4.92635746795628     -1.02133698255552     -0.75854951628547
  C   3.52837617794048      1.23979177516584     -0.21223633218869
  N   2.84822888876589      2.38558416181131      0.16029377834848
  C   3.22020854223706      3.66793968746720     -0.17689652536797
  O   2.59373910220426      4.63524704636032      0.15822488794730
  H   3.25397210218722     -3.37853461048404     -0.08614973261951
  H   3.26840471810464     -2.45271438992983      1.43583127796892
  H   7.77434611121927      0.06882923857472     -1.08012901044102
  H   7.84745443325014      1.93361099747756      0.42647071170261
  H   6.78919757701972      1.06473269655222      1.57672612005410
  H   1.96914846395812      2.29662112916968      0.65355210512468
  H   4.13315901890288      3.71047931427583     -0.78621036913767
