26
Coordinates from ORCA-job 9655optt
  Br  1.64765195425610     -0.62198504697964     -2.07967903425514
  C   2.45734241875496      0.35372812161747     -0.69010791187254
  C   2.96017247129411      1.57349602231686     -0.86911366781653
  C   2.71510409984858      2.41711128662645     -2.09990362103379
  O   1.30376982992924      2.68805828175884     -2.18097062853589
  C   0.80345020111776      3.23278227054588     -1.05572219491928
  N   1.34357692038812      4.17514978935297     -0.40071321502503
  C   0.59978874780325      4.29634167650072      0.85251966813582
  C   -0.55892705700795      3.25236090454935      0.76403494769598
  N   -0.36124924053747      2.68838459332304     -0.57531403623092
  C   1.53211057343829      4.13758095865155      2.06156173942173
  O   1.76822742556078      2.77762454196182      2.47637343373812
  C   2.26481092839534      1.88651742529053      1.61864315999803
  S   3.61464159474182      2.39719954651489      0.56371667502724
  N   1.79061759446884      0.71503513548686      1.60027124513245
  C   2.31072429868980     -0.21671620867256      0.68233946454067
  N   2.52716255940223     -1.43370658197882      0.92239163244676
  H   2.95091060568393      1.87514803193341     -3.01214987349862
  H   3.27110771137309      3.35194926687186     -2.05458568014850
  H   0.19796970240705      5.30991881846489      0.92928534339795
  H   -1.53578189718653      3.72499824018293      0.84856380028487
  H   -0.47139950561138      2.47911236440399      1.52851801885563
  H   -0.50195763407079      1.70089573095590     -0.73544887253973
  H   1.08695097475072      4.58365331761038      2.94833242664566
  H   2.47782109411939      4.63410476251899      1.84250144022945
  H   2.33340362799068     -1.63574324980858      1.90365574032559
