22
Coordinates from ORCA-job 9660optt
  Br  1.12117947494193     -0.08732214985977      0.22597690796759
  C   2.98534501014502      0.10233138903224      0.08349298891290
  C   3.58733923932906      1.29355243238657     -0.11632246361827
  C   2.90486511807529      2.60616233756658     -0.35628793279201
  O   3.64670798317542      3.70716863831667      0.20230804682772
  C   4.94460602294156      3.67834749914928     -0.04843186143351
  N   5.77035859552032      4.68501349232132     -0.03433486958946
  C   6.95877495710973      4.06969329223921     -0.29712548365413
  N   6.91608445056100      2.76885889082929     -0.46981210170713
  N   5.60044125301140      2.51690978125037     -0.31478430197044
  C   5.02416973382814      1.24738396504785     -0.20364996771984
  C   5.75232163407515      0.11811415843195     -0.13442378895774
  C   5.08358303939824     -1.15676135707916      0.04581158935544
  N   5.57579546319379     -2.32681660329869      0.12859362242365
  N   3.68677243290427     -1.05055360151388      0.16576068766325
  C   8.19411363344566      4.79107952611407     -0.39070185698405
  N   9.17841900103046      5.37144303386259     -0.46266392205564
  H   1.92703359250274      2.64676869648715      0.11283835917232
  H   2.79456951580972      2.79966777599673     -1.42806589440079
  H   6.83080186909015      0.14939115656321     -0.18598595599615
  H   6.58637435222977     -2.30813736451974      0.03905895732961
  H   3.20534362768115     -1.92629498932383      0.31674924122668
