24
Coordinates from ORCA-job 9662optt
  Br  1.39664107014231     -0.51527686616810     -2.75001250213443
  C   2.79996635747649      0.07311302489284     -1.63738467888658
  C   3.18008584811437      1.35252700046796     -1.61409863113243
  C   2.48676391666290      2.47977285074859     -2.33875169399795
  O   1.37438289097296      3.03244233000087     -1.57117183566594
  C   1.66585468458299      3.17121188413621     -0.27043889849492
  N   1.69166322336396      2.20864884385552      0.61308366159763
  C   2.38477745273820      2.77288090369538      1.63001580843765
  O   2.90719180356298      2.01171007661884      2.61372433538014
  C   4.17664711909482      1.43299112135092      2.23161890790118
  C   4.11884669735610      0.81031154173004      0.85226700428081
  S   4.44191882014533      1.89091482989163     -0.50037183253731
  C   3.67283054629011     -0.42459236840703      0.63406351007140
  C   3.35457460571698     -0.95215961162567     -0.70938930310298
  N   3.40266396367142     -2.17042063186179     -1.05671699738301
  N   2.68747260158202      4.04132082662068      1.48154490149493
  N   2.20060424819657      4.29143937228412      0.24488762871448
  H   2.03878079049109      2.13833593628800     -3.26636851157366
  H   3.19194031731446      3.28878817796529     -2.54140653089077
  H   4.37584887329890      0.67167112254012      2.98238186468227
  H   4.94213339123265      2.21046723442588      2.28312139077037
  H   3.42972095008268     -1.06431877333657      1.47666975154243
  H   3.76791205881299     -2.74901455014487     -0.29995656391335
  H   2.30277776909668      5.19723572403113     -0.18131078515996
