22
Coordinates from ORCA-job 9664optt
  Br  1.15033497657058     -0.31154959050798      0.32037304330631
  C   3.00587186790067     -0.09428428140900      0.19754212777748
  C   3.61480737197121      1.08637092812097      0.02728572680728
  C   2.95339414389680      2.40875513989110     -0.19647165383471
  O   3.69434136779593      3.50213306159086      0.34613316850372
  C   5.01998161277070      3.53054946010518      0.17622099027336
  N   5.57329780440273      4.69318455756032      0.27239571395348
  C   6.93154379929897      4.82442815491991      0.14569481767244
  O   7.54892992620626      5.85434562253292      0.20028766575642
  N   7.65805953928340      3.61669883733361     -0.08038860657318
  C   7.08874811204895      2.41658622495987     -0.14846370239835
  C   5.73369436011997      2.30026276959400     -0.03629923478814
  C   5.05818055356764      1.01722564022765      0.00236723826466
  N   5.73038018224363     -0.08533490641710      0.04550266384294
  C   5.05281763747396     -1.28513107773222      0.09748757615141
  N   5.52730407963535     -2.44272857235150      0.02178412443792
  O   3.65618259108345     -1.24167253821162      0.28562810859226
  H   1.97782390746785      2.45170481976431      0.28001107960675
  H   2.82341420578182      2.59324289297490     -1.26768138895710
  H   8.65817177586281      3.73185590689026     -0.16616773463050
  H   7.72083623038843      1.54769943278906     -0.28133883713575
  H   6.53588395422883     -2.38234248262554     -0.08290288662870
