19
Coordinates from ORCA-job 9672optt
  Br  0.93586990625225     -0.71702753816945     -0.04170787447261
  C   2.78837186534232     -0.45926810294769     -0.04024512839316
  C   3.67635124407859     -1.45639542819562     -0.03911318158317
  C   3.45066233461610     -2.93811307584295     -0.03876344649796
  O   2.41737049792535     -3.53210611596008     -0.03899731322115
  C   4.85313898644125     -3.52697563263554     -0.03812973974957
  N   5.03845603830424     -4.78036953461409     -0.03818399666425
  O   6.35312938084780     -5.24213651472286     -0.03791179275846
  C   7.49140957976391     -4.48700538806791     -0.03812257810689
  N   8.62232452463513     -5.02130785218122     -0.03874580296499
  S   7.49482499251877     -2.71613704196658     -0.03653761950118
  C   5.78840178065528     -2.43389301756899     -0.03771137624986
  C   5.11570186568303     -1.25629522614588     -0.03830502675907
  N   5.67006784579867      0.00023483115741     -0.03820716288089
  C   5.01122661914754      1.20793834332544     -0.03915215843715
  O   5.58605594609416      2.25748366924513     -0.03882806342362
  S   3.22216710145756      1.23271613431228     -0.04047905172399
  H   8.55868726579246     -6.03873645448394     -0.03925257103455
  H   6.67878222464557      0.09839394546257     -0.03760611557749
