21
Coordinates from ORCA-job 9673optt
  Br  1.12669232455895     -1.01247193802633     -0.10390964856189
  C   2.81020416847783     -0.19081944664604     -0.00353107670165
  C   2.97916631298965      1.14537971236264     -0.00862780135859
  C   2.01947629929459      2.28906156421023     -0.08158868856309
  O   0.82893875029230      2.26230359459011     -0.14418067020423
  C   2.90048338216760      3.53452241440422     -0.05268880643436
  N   2.35980373439871      4.67830055771319     -0.12196427558602
  O   3.01753794270071      5.85483711202897     -0.11004725738576
  N   4.39200186844952      6.09000454525955      0.00578539403723
  C   5.32202879884356      5.23319918160312      0.09409618401752
  N   5.36096643227009      3.85358353164205      0.11163545294745
  C   4.28379743140619      3.06303479735682      0.04759359383263
  C   4.30547639616725      1.69508891682763      0.06789653970596
  C   5.50712145419778      0.87431905941389      0.16069146708998
  O   6.62919501362264      1.37186546741233      0.23035369279463
  C   5.23783426879602     -0.56025315366025      0.15994080285783
  C   3.97696791889375     -1.04213244429768      0.08169595996150
  H   6.30241015609724      5.68963843225200      0.17355194972581
  H   6.25418462391783      3.36789519063865      0.18099810538551
  H   6.08890304673639     -1.22533623539308      0.22185032524096
  H   3.80880967572138     -2.11202085969203      0.08244875719857
