22
Coordinates from ORCA-job 9676optt
  Br  1.10528958400399      0.06705412956644     -0.08234358998042
  C   2.97977730708050     -0.09333218749616      0.01913397341929
  C   3.62278703554456     -1.21774411699783      0.41755325079475
  C   2.94156009005006     -2.46781405105019      0.86227009968709
  O   3.03117995399157     -3.52191262653785     -0.10118557728660
  C   4.20612388756781     -4.15000541028735     -0.17900569502357
  N   4.24609305772119     -5.35376042165146     -0.69219904629869
  S   5.77814867979921     -5.86259234219328     -0.60139940759791
  N   6.43641262303415     -4.58026084026026      0.10162353168574
  C   5.48938874322679     -3.67869495851099      0.27846181075493
  C   5.89549577360738     -2.33810028221408      0.81595721559153
  O   6.91504230197462     -2.21030840634683      1.43735893625620
  C   5.06318885129025     -1.13951491457049      0.44287170932476
  C   5.73311244892566     -0.01888955515102      0.10350315444358
  C   5.03464581658520      1.17883800150155     -0.33083725498447
  N   5.50174980685562      2.30382293099379     -0.70006768305082
  N   3.64181694362955      1.03207923678912     -0.33351107225271
  H   1.87845619895034     -2.30844953000770      1.00946068009684
  H   3.37093953032265     -2.82414292264948      1.80485923005343
  H   6.81404846060569      0.00211243149338      0.14117334736904
  H   6.51605439095088      2.30709145915325     -0.66483951571802
  H   3.12568851428228      1.84952437642746     -0.62883809728396
