27
Coordinates from ORCA-job 9679optt
  Br  1.20119757881870      0.11724749858664      0.28807239548105
  C   3.06018718781163     -0.07628094729609      0.11198594891064
  C   3.86350280184476      0.95604541644876     -0.20507201478653
  C   5.26997198051569      0.77084268105806     -0.35967027474051
  O   5.90668381341606      1.90770258269935     -0.73921437181994
  C   4.99846138557294      3.01311674055545     -0.65926270980606
  O   5.26871971770957      3.80074330327898      0.44289480635313
  C   4.37891736451418      3.46116786749056      1.50413885108643
  C   3.06795146098169      3.14494692067344      0.80290435338880
  C   3.55895435344425      2.41417040794225     -0.45800641222633
  N   2.70642239011040      2.53910809098248     -1.62467042096185
  C   2.41393484564733      3.72799155226038     -2.20645427390586
  O   2.89266510578104      4.78892998525279     -1.88156414063486
  C   5.81813308316332     -0.43804477023583     -0.16972237423939
  N   4.98262083180721     -1.48298065766487      0.16777945792496
  C   3.60250588809794     -1.42643846260825      0.32337035691175
  N   2.84621643389740     -2.41066168951357      0.62278876342945
  H   5.12953898612378      3.60106057094602     -1.56188304542785
  H   4.32463861055350      4.31556767317242      2.17391420006347
  H   4.76265901101799      2.59637479586621      2.05667358898911
  H   2.57279055491972      4.06618957930977      0.50015758845703
  H   2.39003643607360      2.53465015860366      1.39518484282017
  H   2.17379669147536      1.72986412818522     -1.90398482901924
  H   1.68928242849641      3.62429401781414     -3.02923926060490
  H   6.87000718858196     -0.65546611809235     -0.26929991933738
  H   5.40120254142612     -2.38742842106062      0.31388275974351
  H   3.36400132819737     -3.27771290465502      0.74129613395119
