26
Coordinates from ORCA-job 9682optt
  Br  0.98504193702340      0.19858239970920     -0.19973372188971
  C   2.85387172658699      0.02143665270147     -0.06999932295691
  C   3.47873098328316     -1.23174939844038     -0.06074744340298
  C   2.70688615672847     -2.52993694349204     -0.07198613738958
  O   1.58892339602705     -2.66762905243079      0.33387707520643
  C   3.55821433924938     -3.65158367087435     -0.61242015917609
  O   3.03776212111929     -4.93543562133488     -0.48267408707810
  C   4.13765867930397     -5.85226039276140     -0.38151322830774
  C   5.42262505384475     -5.00629760453559     -0.26496268143411
  C   4.84993519365634     -3.67513592942965      0.18993365752827
  N   5.58506330070079     -2.47212541984003     -0.10352956460196
  C   4.89646373464057     -1.27731794965735     -0.05203431248027
  C   5.63426579869219     -0.08691873420463     -0.00383359110846
  C   4.99653649494947      1.12528792494426      0.01067625992255
  C   3.60020513254505      1.19883876290146     -0.03111985559680
  C   2.98963788004149      2.49321641535787     -0.03731237336122
  N   2.55697668451828      3.55604238367796     -0.03687051365383
  H   3.80897255818304     -3.40808096379360     -1.65837561973016
  H   4.15441289252176     -6.49603786436564     -1.26152319163459
  H   3.97172415923764     -6.46945970343595      0.50127645593196
  H   5.89964109232751     -4.87659610836641     -1.23769844575613
  H   6.14257839295141     -5.43884163250689      0.42762711668036
  H   4.58444866129547     -3.72955964675812      1.25616024270993
  H   6.54055048468889     -2.42711471665147      0.21651402637351
  H   6.71559690082513     -0.13556670579556      0.01693936407947
  H   5.56627624505842      2.04424351938254      0.04733005112613
