25
Coordinates from ORCA-job 9685optt
  Br  1.15986106464169     -0.42424520961231      0.10325708658171
  C   2.92233956943812      0.13655717626723      0.31528216355814
  C   3.31298873446297      1.40589678775436      0.13663902698881
  C   4.69255010779163      1.73971093734774      0.32686143890408
  O   4.93102931796705      3.05232864752206      0.11640080010461
  C   3.77730414555937      3.63584561933276     -0.52153176064298
  O   3.55759316865636      4.90522056740773     -0.08313192413539
  C   3.25417372729026      5.05582606854798      1.30946110755436
  C   2.53312019610475      3.83108602710609      1.87701985124063
  N   1.74667591863436      3.13919456286984      0.86818390376532
  C   2.56773986351653      2.66446412379825     -0.21575460798675
  C   1.73895142055731      2.53274713611393     -1.48347206749673
  O   0.70480463908788      3.11034975689264     -1.63548958594176
  N   5.61498682047643      0.92439468959547      0.66486957550683
  N   5.18994462611949     -0.34491744361483      0.84336868523748
  C   3.92626170272933     -0.87663496102345      0.70147659738344
  O   3.70509460610192     -2.05269286631849      0.88344167401246
  H   3.99071408713688      3.70497710853780     -1.59024508574480
  H   2.61765966583522      5.93822607678086      1.35654266647070
  H   4.17970916418201      5.25737702379797      1.85200378781525
  H   1.88174963639613      4.13255135329626      2.69588773917174
  H   3.25293167980803      3.11996107335458      2.28924956188972
  H   0.99419214341047      3.70762613920825      0.49122718294309
  H   2.18281377834973      1.90605542747406     -2.27827394170829
  H   5.91281021574602     -0.99890582243682      1.10672612452833
