27
Coordinates from ORCA-job 9688optt
  Br  0.94574268177469      0.30289608148262     -0.23579993649210
  C   2.77006095007422     -0.08552513715067      0.13909047323485
  C   3.42024127782263     -1.20983460882175     -0.36613544657914
  C   2.65601009920038     -2.17037648139992     -1.30854349689865
  O   2.72828073486687     -3.59050114400206     -1.03224733876082
  C   3.96504933755654     -3.80275994032233     -0.48023918950457
  O   4.92636186736368     -3.22195642689103     -1.33202969377062
  C   5.69643364998598     -2.44515771856587     -0.46147675277734
  C   6.17438180984074     -3.43336444287298      0.66865747777067
  O   5.88255154318895     -4.79101989497317      0.32162466029910
  C   4.56899908776642     -5.14126539522727     -0.09791453645367
  C   3.75867679534293     -5.78237778615133      1.00884546875421
  O   3.99375200160113     -5.61684092979219      2.17055071628002
  C   4.79981751408580     -1.29993363535848      0.00789696486663
  N   5.41848657594175     -0.43032845800957      0.78774305995217
  C   4.74553925133190      0.62026191690203      1.24748357332427
  C   3.42034687561773      0.84196267574870      0.94381151989345
  H   3.02299890105861     -2.00462885226327     -2.32129302778751
  H   1.59891346457064     -1.93820387136640     -1.27506788063532
  H   3.95268740848139     -3.28458080307757      0.48369163696650
  H   6.54226474458403     -2.03043642978955     -1.00752906459413
  H   7.25539562106262     -3.40499634090832      0.77105220178870
  H   5.73014375939680     -3.17039619020847      1.63153419798276
  H   4.65434771823851     -5.81332068518741     -0.95531593222582
  H   2.89297270002390     -6.38472346623659      0.67360798281323
  H   5.29229205519240      1.31051358846888      1.87924187590316
  H   2.89725157402874      1.70789437597402      1.32176048664999
