25
Coordinates from ORCA-job 9690optt
  Br  1.09555991185588      0.28921006425566      0.00778407183342
  C   2.97424100902546      0.07683389826377      0.08524428952075
  C   3.59424348753172     -1.17797311703310      0.06766048300859
  C   2.79366808119913     -2.46174288527732      0.07939482517983
  O   1.70216157100756     -2.59215883472367      0.55314135199905
  C   3.61330131634478     -3.57522324528522     -0.49891762457358
  O   3.10707813218246     -4.90179935978749     -0.45635598044902
  C   4.22522552160678     -5.64729815648414     -0.24544938899168
  N   5.28956820156751     -5.07077412766839      0.12236817634392
  C   4.87711588924459     -3.67980705123680      0.34506591453976
  C   5.79666041129006     -2.52591683556085     -0.01385857394631
  C   6.42778557692622     -2.77758139844516     -1.37677067909391
  O   6.23842593047616     -2.10846403263699     -2.35104483003229
  C   5.00620080891950     -1.22754434093081      0.04867326686888
  C   5.73575124741693     -0.04678971858081      0.08439794655294
  C   5.10038139167400      1.18114471636685      0.11983486687988
  C   3.71724260480919      1.24632509904136      0.11126662990267
  H   3.86723372927072     -3.33221912710021     -1.53932947212626
  H   4.10425588115929     -6.70986027438435     -0.40806301679740
  H   4.62079789565981     -3.58650838366225      1.40795534304029
  H   6.62608080225502     -2.48395631045455      0.69959903142979
  H   7.08334281076134     -3.66619684567156     -1.40528896536458
  H   6.81777419267211     -0.09574086859312      0.07771583879973
  H   5.68054107065062      2.09427867971339      0.14529956197166
  H   3.20636252449309      2.19876245587579      0.12067693350388
