24
Coordinates from ORCA-job 9698optt
  Br  1.02729949017858      0.03859148063836      0.28403604833728
  C   2.90489023394852     -0.08256548169276      0.02658636231148
  C   3.59871681611658     -1.26598916710498      0.25910687086235
  C   2.93980726832557     -2.53611858298340      0.74091297107721
  O   3.03845117577506     -3.56527067041303     -0.22898367468510
  C   4.10357208049139     -4.44176832781307     -0.06318096303571
  O   4.07078684501197     -5.29719960674914     -1.17411716557859
  C   4.81623878053978     -4.74318641104080     -2.16953834670457
  O   4.80804370956450     -5.08505934398832     -3.29586352612199
  O   5.59180555020495     -3.75859586664766     -1.65147790276488
  C   5.49345421661539     -3.81620817260734     -0.23269264433545
  C   5.82589767764028     -2.44576212825003      0.35762092487292
  O   6.82795129049802     -2.34874825681319      1.01546366969991
  C   4.98349425350937     -1.24702668475234      0.05907180913724
  C   5.64500812536415     -0.09710859200321     -0.34821845530240
  C   4.92382453971810      1.06025178016409     -0.59082496656563
  C   3.55287477482426      1.07010689080435     -0.40035681176323
  H   1.88116706331743     -2.37730460888299      0.91968011267276
  H   3.39134682901031     -2.85848496485120      1.68695808628512
  H   4.00516024484904     -5.03334346382544      0.84909435583596
  H   6.24902830564341     -4.50418480687658      0.15292226028230
  H   6.71985085722787     -0.12144231116716     -0.46785375807575
  H   5.42681535171292      1.95988963405638     -0.91909332049692
  H   2.97851451991247      1.96852766279945     -0.57725193594431
