21
Coordinates from ORCA-job 9699optt
  Br  1.19210905232440     -0.12903689528287     -0.00411242789272
  C   3.03918546539938      0.13220304511026     -0.01406942993729
  C   3.67651212292377      1.33997211398576     -0.01752933090978
  C   2.94223835254473      2.65704599612495     -0.01556932338224
  O   1.72308847458894      2.70795268589679     -0.01220760728718
  C   3.78728574843544      3.82696593871487     -0.01820271463098
  Br  3.00157037578536      5.53181417032357     -0.01589467679234
  C   5.14224527675928      3.68778129267768     -0.02268751804394
  N   6.15362344307522      4.60957375963399     -0.02581116295879
  C   7.34955806628258      3.91404488641238     -0.02946630828759
  N   7.20770755823880      2.63384578179045     -0.02922863408337
  C   5.82858424724950      2.43668065052875     -0.02509868213883
  C   5.11911204937136      1.27751498891496     -0.02292912432637
  N   5.75289984000368      0.05473421001667     -0.02529303351345
  C   5.12245825313700     -1.15502754457320     -0.02304385219494
  O   5.66991828786631     -2.22575921329544     -0.02524923957490
  N   3.73108117515129     -1.03836983483991     -0.01705006681536
  H   6.02472608638764      5.60829707781260     -0.02485436159414
  H   8.29421880481797      4.43683852778573     -0.03205469895444
  H   6.76527917802438      0.04243991483020     -0.02903171596455
  H   3.22959814163293     -1.91551155256822     -0.01461609071678
