22
Coordinates from ORCA-job 9704optt
  Br  3.75708990202037      2.00998679789874      1.99133965303031
  C   3.88093938267850      0.75828364125607      0.59891819448270
  C   4.50008678251057     -0.44892604182570      0.70886536686354
  C   4.63606082611356     -1.23922059312771     -0.49997230377753
  O   3.85221650441847     -0.89825965421324     -1.56829347806913
  C   3.24677091565498      0.29598692852774     -1.63855236785792
  C   3.27679113461462      1.17528125712410     -0.63584303886960
  C   5.46476619607865     -2.28749677571124     -0.72597902159806
  C   5.62351760528888     -3.03381922568748     -1.98233852787929
  N   5.04703712870046     -3.07283855710911     -3.09972489697278
  O   6.70679233812369     -3.86449571048107     -1.77536278965522
  N   7.21350345025640     -3.70335715309409     -0.51104646099290
  C   6.51265025475836     -2.81608739216113      0.11101610345853
  C   6.88068976054534     -2.48215048038185      1.46760061068174
  C   6.21878749819490     -1.67007778081592      2.29108860983212
  C   4.94416502580038     -0.96062154864205      2.06065743498059
  O   4.23502915686386     -0.73755592129692      3.01146015991800
  H   2.74856748593442      0.44015715567331     -2.58609820125734
  H   2.80140560068180      2.13805605353176     -0.72914024236074
  H   4.26719697757735     -2.42780010769496     -3.12586007569535
  H   7.76493509848942     -2.99624750492347      1.82553777948162
  H   6.55600097469498     -1.56279738684577      3.31472749225671
