27
Coordinates from ORCA-job 9708optt
  Br  4.18612074190960     -1.77198041184566     -0.64958163096558
  C   3.08196387486555     -0.36028166516505     -1.30933667086411
  C   3.64620161736499      0.71779956607918     -1.97297287566173
  C   4.70786500500467      1.36550038045732     -1.11161592725499
  O   3.88958897818117      1.90536267256901     -0.05420669942970
  C   2.98217380595138      1.03141545971168      0.60556234105622
  C   2.09787986584508      0.23584404547989     -0.39328043748205
  C   0.83653347151694      0.50046450490386     -0.73903340511102
  C   0.13835718363049      1.75781852179204     -0.43766416063551
  C   -0.17319907010823      2.16136629001317      0.96513917022440
  O   0.09584197118501      1.50395418781348      1.93154939984027
  C   -0.24262521022619      2.62868893153255     -1.38620363401249
  C   -0.31399611792800      2.54431067113717     -2.88648455654385
  O   -1.23121182917100      3.13237159719290     -3.41846442885164
  N   0.54620058377271      1.79823147859927     -3.66647119041207
  C   1.69463954014577      1.08538245082484     -3.32469381473661
  C   2.74003923307397      1.59933964765360     -2.65497259025189
  H   5.19309786024146      2.22399689737690     -1.56913120769101
  H   5.44563167698071      0.66288205472359     -0.72979469032485
  H   3.52430886120120      0.31756995548687      1.23117251976623
  H   2.36733970826077      1.66373933437688      1.23705139330910
  H   0.40054729693730     -0.10519166751785     -1.52296878684121
  H   -0.69314702911467      3.13263004888081      1.05630875852877
  H   -0.75164100529896      3.53119660755858     -1.06276003904318
  H   0.17318927608854      1.68286177828030     -4.60025474259120
  H   1.70297079176083      0.03683008901194     -3.60879758809969
  H   2.82032891792887      2.67089657307270     -2.50309450592059
