22
Coordinates from ORCA-job 9711optt
  Br  1.23093455329700     -0.55473207172681      0.30790479945546
  C   3.08437201053061     -0.31897296899878      0.16967499995183
  C   3.66867692167220      0.91211771771438      0.09700172328258
  C   5.11916834108602      0.95973810195568     -0.01036893539498
  O   5.86673895816986     -0.15504877780737     -0.03518460079029
  C   5.25710815670313     -1.34299911105932      0.03605825203673
  C   3.90352019050370     -1.47315902287866      0.13886783937246
  C   6.14772532329418     -2.45056729204698     -0.00991187990777
  C   6.88716404234871     -3.39107866503761     -0.04805571102601
  N   5.61418657162346      2.14306097958077     -0.08488225099550
  C   4.49822412717148      2.96715121929804     -0.02670350722271
  C   4.66588668739477      4.43381265129807     -0.07520087788346
  O   5.72696065391708      4.98601565301550     -0.15888348706006
  C   3.29903525381535      2.29109346748680      0.07863087605371
  C   1.90913998568969      2.85451030094355      0.16481013347279
  C   1.32526570127106      2.69810183371924      1.50099567185240
  N   0.87510962362466      2.57120679732632      2.54679168161162
  H   3.47739858080819     -2.46222764636876      0.19584734375017
  H   7.54583118685419     -4.22719538715858     -0.08255349897018
  H   3.73055303189411      5.01995398948742     -0.02678391097526
  H   1.24647060483469      2.35920469851040     -0.54740885213557
  H   1.90552949349578      3.91501353274668     -0.08264580847798
