26
Coordinates from ORCA-job 9712optt
  Br  3.18922120476753      0.31446239820172     -1.25254458827979
  C   2.62963931241675     -0.15704360046001      0.50630580649431
  C   3.35749205664928      0.31126004519776      1.56603673287346
  C   4.80714603434993     -0.06402137126235      1.52200656423540
  O   4.68265713182836     -1.50080281019976      1.64553718950139
  C   3.82179057327367     -2.20287399615561      0.76011409447888
  C   2.38916564545278     -1.60398286892886      0.71707224169590
  C   1.27865799236478     -2.26162072526469      1.03097188260169
  C   -0.05846734244733     -1.59416590941420      1.13176914558596
  N   -0.59746570440822     -0.90415139274504      0.22106083270548
  N   -0.76311906348112     -1.81445347779918      2.33476620389991
  C   -0.29977441777145     -1.52253425629299      3.48869507149766
  C   -1.14559964739224     -1.98672161714368      4.64567246450717
  O   -0.80188371411252     -1.86331717141965      5.78620291413481
  C   0.99968284694231     -0.91479285131364      3.78230462894621
  C   1.52597777777249     -0.08594392773156      2.88809964182576
  O   2.84810360144783      0.20702168341309      2.82724938226015
  H   5.38572476613552      0.24938422066274      2.38653397922376
  H   5.28845856234400      0.22523064091436      0.59081215581773
  H   4.23649441046394     -2.20308952504716     -0.25221040075199
  H   3.78648488791347     -3.22138100318198      1.14245023188295
  H   1.33126876190146     -3.30683829470532      1.31830589242396
  H   0.01031728868475     -0.86008781787091     -0.59621189373654
  H   -2.09720590220603     -2.45713120217732      4.34666944401766
  H   1.56691387196960     -1.30182355971893      4.61922669812218
  H   0.94031906514045      0.34941839044318      2.08510368403590
