22
Coordinates from ORCA-job 9715optt
  Br  1.12792843066900     -0.10181813169107     -0.22221445836670
  C   2.98627879685306      0.13088851426846     -0.08724487405694
  C   3.58482272068454      1.35368056312872     -0.03072981589875
  C   5.04560591880850      1.34913184861762      0.03142333571975
  O   5.75903450179563      0.21909351006773      0.04666392331691
  C   5.12371343066389     -0.95368037398487      0.00321581039353
  C   3.78051724981422     -1.05144351322708     -0.06240054932359
  C   5.54068400293982      2.62223731005764      0.04990841769365
  C   4.39739447593253      3.44974963180298     -0.00795477840196
  O   4.48541410508070      4.80048069063095      0.04022779445607
  C   3.83910525008505      5.50309821121774     -0.92932184292946
  O   3.65401102496974      5.11987539758259     -2.03816211635695
  C   3.43921478407077      6.89625007295392     -0.45739184563641
  O   3.93567964745201      7.43733921371648      0.48006188445211
  C   3.19822529862777      2.73787781986551     -0.04213593971789
  C   1.88212503744027      3.33806100957379      0.03603093801641
  O   1.68019280105504      4.53793091902207      0.04480522762642
  H   5.80360548981166     -1.79130874065308      0.02209901913481
  H   3.31993136540644     -2.02603755062732     -0.10350692381745
  H   6.56737826590255      2.94294112560377      0.08311671498588
  H   2.67053736748465      7.35302200842913     -1.10041858722172
  H   1.03260003445209      2.64563046364426      0.11392866593230
