23
Coordinates from ORCA-job 9716optt
  Br  1.01164957784771      0.28178863480980     -0.07883462628826
  C   2.87969803326126      0.11336527230581     -0.05001017848877
  C   3.47896698934265     -1.10981145591847     -0.05368049160018
  C   4.92960750158276     -1.15283127809306     -0.02685897839430
  O   5.66317894105172     -0.03634579098247      0.00137031204640
  C   5.03657677037698      1.13930479034552      0.00890190657471
  C   3.68981493879297      1.29194606407955     -0.00881965855368
  C   3.10170734946424      2.66834226435292     -0.02962077602177
  C   2.54110649088933      3.05588673516937     -1.38449218978799
  O   2.71337606387908      2.42311672973248     -2.38390585255481
  N   5.43856127622524     -2.33836334065124     -0.02738864638246
  C   4.32675571219560     -3.16961301320214     -0.05547358401058
  C   4.48277075489057     -4.57945951228968     -0.06090692039571
  C   4.60013574459808     -5.77257613868082     -0.06502116103344
  C   3.11427350650137     -2.49317237661298     -0.07255016897799
  C   1.82415535705360     -3.07136503542160     -0.09859881872663
  C   0.74135548355716     -3.58783922338074     -0.11931452043005
  H   5.73026324065190      1.96710048291559      0.02927940656152
  H   3.85981200500418      3.41577326386343      0.22385071583718
  H   2.30640354987929      2.77828423626981      0.71184175752388
  H   1.95982118394593      3.99682752378569     -1.39630030313376
  H   4.70669731906593     -6.83091733284320     -0.06902201390678
  H   -0.21868779005758     -4.04444149955357     -0.14144520985654
