24
Coordinates from ORCA-job 9725optt
  Br  0.83121707719989      0.71367316549590      2.30740552495169
  C   1.84872177749212      0.93563599850839      0.75582388678395
  C   2.94764111994758      1.71598837904954      0.65290066707003
  C   3.90017975461678      1.43410316134457     -0.50339540085982
  O   3.36193840390425      0.75988606236981     -1.61977613473299
  C   2.36364522222751     -0.21230456278914     -1.35350452522700
  C   1.30929731635044      0.49414468875016     -0.53959167851049
  C   0.21828145533731      1.01940858551592     -1.10434134162843
  S   -0.80586316418911      2.37205229713678     -0.55036934269330
  O   -1.90869009488998      1.89479189608779      0.22013704761293
  O   -1.05330803588482      3.15882072543723     -1.72237763858001
  N   0.21948259463997      3.12899640902217      0.47531590978292
  C   0.40899147406118      4.35273734986635      0.70502887280320
  O   1.35271984007264      4.74386928527097      1.59084944880887
  C   2.07665324555152      3.62355652486072      2.05249955510501
  C   2.92409781305784      3.07763084153990      1.17617546521902
  H   4.73178734415678      0.85136123979111     -0.08374327750702
  H   4.31154970692493      2.36644837584504     -0.88991093638489
  H   2.78010167429747     -1.06457331095358     -0.80684208880329
  H   1.99007824460887     -0.54171474611817     -2.32083800396792
  H   -0.06713968749038      0.74353579455682     -2.11287480678367
  H   -0.11551301704717      5.19896897072617      0.26557652100764
  H   1.69374858710727      3.20687172387644      2.96979809164866
  H   3.21738134794708      3.76211114480909      0.38005418488490
