23
Coordinates from ORCA-job 9727optt
  Br  1.51621012612830      0.48777910308174      1.39521829613098
  C   3.16759674949988      0.17688774207602      0.54989217120641
  C   3.60833319333281     -1.06384349580090      0.20006397679624
  C   5.01585279109575     -1.19237116483704     -0.18123817128757
  O   5.71400477120890     -0.05079826739859     -0.45423572417557
  C   5.20872010946234      1.15431523887135     -0.17354206949320
  C   3.98841752253970      1.33167504326335      0.34942405259810
  N   5.68810689867097     -2.26556886037031     -0.26710172202210
  C   5.05882517517637     -3.48272626702132      0.01723896993998
  N   5.68347883971103     -4.58850969434057      0.07299780808301
  C   3.60625938326925     -3.47805738565426      0.22004884722514
  C   2.90483177801678     -2.33764471083225      0.27940966052939
  C   1.40779678024717     -2.47475363594738      0.27316140243802
  O   0.80469791103076     -3.16388471146750      1.05111755247905
  N   0.78959014611468     -1.82346504824410     -0.78478590519474
  C   -0.58598042261259     -1.76822994278084     -0.94342443274088
  O   -1.10540342151031     -1.18108089863270     -1.85058763429175
  H   5.90181722962244      1.94963922389015     -0.40555487558126
  H   3.63329526272790      2.31941927675603      0.59472296765829
  H   6.67526420523712     -4.42674868672505     -0.10455802556263
  H   3.11354224169950     -4.43961249073042      0.28060314062181
  H   1.34378193349214     -1.30162651612086     -1.45032942366576
  H   -1.12403920416090     -2.30879385103454     -0.15654086169099
