29
Coordinates from ORCA-job 9736optt
  Br  1.04513015798006     -0.12485318502103     -0.51021349462437
  C   2.91661909576692     -0.04550560647154     -0.24969379647038
  C   3.57183439027841      1.16221498435911     -0.18896339635657
  C   4.93995105693393      1.15662212841036      0.06255378960786
  O   5.47016785209113      2.40430135039832      0.15714303505284
  C   4.48736380915606      3.29390750068311     -0.38504126683596
  C   3.11585200908201      2.60025948724998     -0.23573387101539
  C   2.38589076483579      3.00470903665215      1.06993542398388
  C   1.40901553369007      4.07127992262592      0.59536387050995
  N   0.94367007957373      3.48793594534835     -0.65694131620553
  C   2.13893330402941      3.03100393023863     -1.35741038629761
  C   5.61904444360593     -0.03039735466942      0.21741736168592
  N   4.97450893922941     -1.19364693650702      0.13494794033718
  C   3.67242695100714     -1.22432160660468     -0.08853294371420
  N   3.05634728216581     -2.47061204687546     -0.16375659468571
  C   3.68345165943937     -3.68415502472764     -0.02889016609920
  O   3.08771160700685     -4.72890507261986     -0.09764402155670
  H   4.72133829098738      3.45496725361427     -1.44169035068106
  H   4.54681626081202      4.24139209450225      0.14925744848065
  H   3.08600197009609      3.34362667858225      1.83318852186075
  H   1.82551512143508      2.15418921124884      1.45860560760284
  H   1.93250070751820      5.03023401099671      0.45516574629589
  H   0.58165681480806      4.23006783821682      1.28583692652665
  H   0.39230792289058      4.12699910586879     -1.21416959956521
  H   2.61491143881605      3.83406860295900     -1.93736496150333
  H   1.90580107150707      2.21678019012842     -2.04410660279157
  H   6.68367960090768     -0.05866892436274      0.41242495603298
  H   2.06059308669326     -2.50581464899072     -0.33063237304940
  H   4.76095877765647     -3.59867886523320      0.14394451347480
