26
Coordinates from ORCA-job 9745optt
  Br  0.99259282525729      0.12208461227828     -0.08223758484996
  C   2.87944849472147      0.08079959699433     -0.07689176438289
  C   3.57183117394854     -1.10496902362314     -0.07116766923665
  C   3.06171331589152     -2.51583642591586     -0.06507041614862
  O   4.20445296032332     -3.31372796854074      0.20882625054391
  C   5.39303264664746     -2.59018664207873     -0.07667066093992
  C   4.97694781376836     -1.14533275233521     -0.07376300949238
  C   5.73044777622336      0.00467852461318     -0.07999964212808
  C   7.23386579454737      0.10150413180944     -0.09761361378079
  C   7.71802778283961      1.40705156914082      0.55094045323589
  C   7.07170626465848      2.65753865365300     -0.06488414618611
  C   5.57821620037727      2.51893749247062     -0.05170587432995
  N   4.72668466325750      3.49664274631520     -0.02620452754891
  S   3.15783853669095      2.92963765887771     -0.03886023609281
  C   3.61475261914000      1.26778937694528     -0.07004203062061
  C   5.00970136361014      1.20586928063342     -0.07261887752504
  H   2.62388299635463     -2.77755294575539     -1.03664565861359
  H   2.31156092839544     -2.69353527229794      0.70695871072450
  H   5.79785405493157     -2.88780532957523     -1.05237588085504
  H   6.13472107747707     -2.82789785980236      0.68830702652814
  H   7.57930446370350      0.06073492631259     -1.13662416949285
  H   7.67524473728879     -0.75842164243376      0.40999397197252
  H   8.80264152791385      1.47648304041263      0.46494746701175
  H   7.48095532007202      1.37590787961654      1.61750210303774
  H   7.40265600870846      2.76936864957061     -1.10244183720918
  H   7.36991865325195      3.56023772271470      0.46734161637892
