21
Coordinates from ORCA-job 9750optt
  Br  1.16787121476242      0.40494308881477     -0.32790977453374
  C   3.00257460656080      0.14377183707592     -0.13678003720732
  C   3.59243966379087     -1.05420430897489      0.00528496707574
  C   5.02873158299747     -1.05178509696588      0.07856591945355
  O   5.46859168210866     -2.33644144038215      0.17020324464011
  C   4.35936546534108     -3.13883881064853      0.16156234932248
  C   3.20748754395836     -2.45703140085062      0.06142839295919
  C   1.88682343601668     -3.04741347814133     -0.01026499650758
  C   1.33741724982579     -3.91301790393757     -0.85234345600448
  O   0.04899971673474     -4.16407287501744     -0.45507569827055
  C   -0.19287331131487     -3.41436982470044      0.65554393700837
  O   -1.20828828268070     -3.37460198670366      1.25660065432141
  O   0.94176370790844     -2.72594033399619      0.94723943327661
  C   5.78274573398439      0.05556997499560      0.04098160559265
  C   5.10241493169290      1.33125510627692     -0.07968790089169
  N   5.56561558531439      2.50034426003450     -0.12597224879213
  O   3.69975121274743      1.27257155080915     -0.16982831018005
  H   4.54462492545222     -4.19677473765598      0.24531190088241
  H   1.70013270213699     -4.39492000821156     -1.74123571024354
  H   6.86062349952957      0.03773070751158      0.08896706932487
  H   6.57818713313232      2.48922568066782     -0.05759134122632
