25
Coordinates from ORCA-job 9752optt
  Br  1.48606053489060     -0.52279797934479     -0.18304204488427
  C   3.24922907980209     -0.20104719607155      0.42667162138334
  C   3.85482854586478      1.06040378455953      0.26156894037460
  C   3.20158721151983      2.29638998176348     -0.29065391342687
  O   4.24287068647698      3.25441465846655     -0.41915554351654
  C   5.51625315078459      2.66108197772786     -0.22540741872593
  C   5.22991248661943      1.29988596907191      0.33260900076011
  C   6.04240115736082      0.22127416729040      0.70437981803729
  N   7.32519611871844     -0.26704703831975      0.32994390927681
  C   7.34000379737410     -1.68641424022451      0.51962525132875
  C   6.16645821203711     -1.98640318931571      1.14136848273180
  C   5.45222448598681     -3.02978864757552      0.53437314787329
  N   4.06776757170857     -2.65425871560580      0.66087356111541
  C   4.05881649695539     -1.24453632118903      0.84537456773929
  C   5.34793003812458     -0.86317086295890      1.21639279097925
  C   6.35106556162079     -3.55349611096837     -0.37780615332721
  N   7.49246014506709     -2.72580739954713     -0.39791161097619
  H   2.74114385175612      2.10037895459106     -1.26570622047512
  H   2.43081061327628      2.69650312979055      0.37325414985295
  H   6.09424635075219      3.29203970137344      0.45483343377421
  H   6.05958349176459      2.60268922967468     -1.17830738834876
  H   8.14108354852065      0.31301643617067      0.22640689114620
  H   3.33823269276726     -3.08745071867789      0.11902458374208
  H   6.32253752829256     -4.42060035768991     -1.01766132820280
  H   8.35029664195829     -3.00425921299124     -0.84704852823172
