24
Coordinates from ORCA-job 9764optt
  Br  0.90920931167115      0.37718507082428      0.48338540867422
  C   2.76173584471455      0.12201050777240      0.24618628064888
  C   3.51828381350932      1.24679572540573     -0.01001315183973
  C   3.09851815993686      2.67965052580745     -0.14745292361968
  O   4.28248027766813      3.36954360992578     -0.52475155109166
  C   5.42801293343261      2.53987224805924     -0.41035902487340
  C   4.89198346252896      1.15966675090849     -0.16849155535128
  C   5.54667472877245     -0.05438568874410     -0.07163736872417
  C   4.79488145940890     -1.18650266785858      0.19295044873374
  C   3.40482070720340     -1.12353920495704      0.34919630887643
  C   2.64543587650765     -2.36689697870710      0.60017533988646
  O   1.48601371165053     -2.56757346304422      0.43568465237310
  S   3.63998846050683     -3.81121063217574      1.26720107480423
  O   4.37827924414820     -4.38453164979122      0.18086533595829
  O   4.29814656795176     -3.41611546035202      2.47465583242594
  C   2.37065184737977     -4.89514349598276      1.68006360377587
  C   1.55219232172810     -5.69715371156079      2.02183567768579
  H   2.70463583927798      3.07271249031177      0.79626191289221
  H   2.33675438160762      2.81922663619413     -0.91790426570198
  H   6.05829141479682      2.86963724307065      0.42319298645362
  H   6.01334295380223      2.60610612170105     -1.33046591516390
  H   6.61882520918511     -0.13071840667355     -0.19379775412111
  H   5.29772583565044     -2.14131564642597      0.26018680436089
  H   0.82111563696051     -6.41031992370785      2.32503184293722
