28
Coordinates from ORCA-job 9766optt
  Br  1.07893339848124     -0.33644858394213      0.22426548253292
  C   2.93231969410529     -0.08795064796412      0.11381820546706
  C   3.49969061949032      1.13100635085853      0.06736934447632
  C   4.91664802422562      1.27754427062692     -0.06581958115316
  O   5.29596578531173      2.58674838622188     -0.16240806088581
  C   4.20061838389334      3.35917824040737      0.32888792871608
  C   2.92040323239798      2.53585507942465      0.04063668622119
  C   2.40405766464989      2.79388721320798     -1.39196651993364
  C   1.86396849834755      4.14101984804953     -1.54623580913546
  C   1.41635902279618      5.24893668615671     -1.63089207093385
  N   1.86130856565936      2.79630076850870      0.97874895007727
  C   1.88601141596923      2.38863411113983      2.28826046515731
  N   1.10967116362247      2.72865431045791      3.22922515019348
  C   5.71224039886368      0.20162351443644     -0.11665160166949
  N   5.12045904807256     -1.04138404264451     -0.04985132639216
  C   3.75802130503637     -1.30727561633283      0.06530983539970
  N   3.23775968189809     -2.47044956294773      0.12343666249389
  H   4.20519573903051      4.32641948431722     -0.17005515729210
  H   4.30302133665659      3.49416479301407      1.40952674123786
  H   1.63302147989480      2.05426338023386     -1.61808512515823
  H   3.23081998632400      2.64437211444904     -2.08993866522266
  H   1.01908048340005      6.23143264401844     -1.72862229468491
  H   1.19729896051895      3.51066402136001      0.71547296769949
  H   2.67198666886787      1.66095514830438      2.49570624491286
  H   0.41251877560456      3.40811490133668      2.92265333395025
  H   6.78629817350247      0.23794108278723     -0.21195076343335
  H   5.72133121333155     -1.84868122822389     -0.08723241224946
  H   3.93399128004773     -3.21052666726220      0.08239138960858
