23
Coordinates from ORCA-job 9769optt
  Br  0.87943041379165     -0.87320716896287      1.08814350913016
  C   2.64762812336334     -0.48545348276892      0.57078357106903
  C   3.53190205415351     -1.46632249936821      0.36025810598158
  C   3.37501432582093     -2.95924065448341      0.45882824816012
  O   4.52049024421641     -3.47381802951930     -0.19961721358347
  C   5.56991818574680     -2.52558332153746     -0.13063108172196
  C   4.88169173834382     -1.19143617300728     -0.01187265976440
  C   5.40145701444163      0.03647806998729     -0.19567753709323
  C   4.66826174954919      1.26677773952195     -0.05302499439387
  S   2.95927051209437      1.21263664545733      0.41119013536198
  N   5.32893633592515      2.36382794175694     -0.28255464558967
  C   4.79403956914328      3.61157975038991     -0.19975648524595
  C   5.61158899516712      4.72939786782089     -0.46309200374069
  N   5.12468024891494      5.93391512210756     -0.39203750288361
  N   3.83317596751331      6.09035155062726     -0.06852518081330
  N   3.07947615028924      5.07847785460147      0.17425585749000
  N   3.52973566901720      3.83271070474182      0.11865237837394
  H   2.48240976419006     -3.33179317812871     -0.04246293215794
  H   3.34631532689493     -3.27476675604296      1.50954500369660
  H   6.18335120152231     -2.61434783403820     -1.02637216801925
  H   6.20105611861935     -2.70283499401425      0.74960454765564
  H   6.43735334082412      0.17270928434422     -0.48027860387754
  H   6.65581695045729      4.60994156051491     -0.72735834803419
