26
Coordinates from ORCA-job 9772optt
  Br  1.21202862954588      0.07736244207078      0.43272560255497
  C   3.06141734480229      0.04556934314764      0.07692840443348
  C   3.73555614741609     -1.15598313427551      0.12008030098619
  C   3.26009638059106     -2.54987828418419      0.39222762468753
  O   4.37449376891197     -3.37133700168307      0.07632214139211
  C   5.57032737765301     -2.60518790626361      0.01278559555901
  C   5.09966811850772     -1.18323174562227     -0.10921117150854
  C   5.76348566659041      0.00071776159827     -0.37026292449451
  N   5.11857882897007      1.16434852220881     -0.41314039229574
  C   3.80603823540259      1.19357763717935     -0.20638837542204
  C   3.13243040908470      2.52867639959761     -0.40330300619606
  O   2.23677541171994      2.66109142464897     -1.19254871145931
  N   3.61028164569223      3.59505234905124      0.35133332486173
  C   3.13553132915025      4.88878831034183      0.20428045490573
  C   3.76409481221179      5.67116963004142      1.11742174876694
  C   4.65691864218044      4.83542504251174      1.86506971912654
  C   4.54619164059944      3.57443453752511      1.37697939026666
  H   2.41237796219565     -2.83647863578988     -0.23217222698518
  H   2.96782077252946     -2.66408464684848      1.44307455105837
  H   6.15621643303842     -2.94010086726233     -0.84425527941201
  H   6.16787693630405     -2.74822664810752      0.92040916596971
  H   6.83158508974700      0.03456182359809     -0.55273678871599
  H   2.39204881814042      5.09868183961756     -0.54382941076544
  H   3.61189357280666      6.72943658670389      1.24813934297453
  H   5.30732309089914      5.14118614808257      2.66740297914705
  H   5.04994293530920      2.66542907211198      1.64866794056426
