24
Coordinates from ORCA-job 9774optt
  Br  0.98580534231052      0.27766602724253     -0.09911368854136
  C   2.84236123768375      0.14393155936126      0.04378933149243
  C   3.53113991850110     -1.00192834332085      0.10639366109725
  C   3.01284166707512     -2.41988324940922      0.18054873724665
  O   4.11338708912961     -3.15681766036540      0.68657324297986
  C   5.32970513938469     -2.54386210258372      0.28022775689703
  C   4.96738418340138     -1.09232939185084      0.08917569249088
  C   5.73491878648006     -0.03785748789745     -0.22362237359887
  N   5.16446050092146      1.20414782607938     -0.39488781705044
  S   3.72774491874312      1.63752030309702      0.30898868402924
  O   3.91184787676967      1.77630518165513      1.71383504114665
  O   3.22366548462766      2.73227414226168     -0.45215812793156
  C   2.58244057089243     -2.93038203577008     -1.16190919750907
  C   2.63199583338280     -2.42804019085947     -2.41734514260736
  C   2.08142401404389     -3.47840421448257     -3.20105878533415
  N   1.74172765221267     -4.49790642849672     -2.47028209452413
  O   2.05214997662308     -4.15632083201611     -1.18121515312600
  H   2.19044934129770     -2.52514292309354      0.89069215205611
  H   5.69163685469888     -2.98983592243426     -0.65285671591398
  H   6.06481678827024     -2.71330391298129      1.06531397279373
  H   6.80054896776283     -0.10177035967115     -0.39973172812548
  H   5.65246791234178      1.95464882856929     -0.86166549925908
  H   2.98798149527564     -1.46219893498787     -2.72969945613649
  H   1.92309844816986     -3.52250987804570     -4.26699249257184
