28
Coordinates from ORCA-job 9778optt
  Br  1.22268171089318      0.22604060089635      1.00958050870710
  C   3.02142367091457      0.21537154376106      0.44463215140887
  C   3.64465148665303     -0.94627060370562      0.18645901301050
  C   3.05807027399987     -2.33333437954646      0.20607955467050
  O   4.17444807452778     -3.21661961288745      0.13359680663649
  C   5.37547612182346     -2.54017306045303     -0.20709879634752
  C   5.03983953722698     -1.07315007856952     -0.15035976821747
  C   5.85762121245589     -0.03409075281893     -0.33270199102989
  S   5.35086558369015      1.60642982166526     -0.18119432351844
  C   3.65346265671189      1.53927771189965      0.35701455492291
  N   3.01991586730814      2.60157120729653      0.62709334310399
  C   2.11617753693796     -2.59092450003785     -0.96546755236645
  C   2.71392172326605     -2.34469062661916     -2.35556035118316
  C   1.93767231586689     -3.31790185804494     -3.23349907981817
  O   1.91086496216417     -3.33727859647687     -4.43049070178938
  C   1.18950063945859     -4.26690974478839     -2.29665473647537
  N   1.68707877488820     -3.99576811764097     -0.95222255198942
  H   2.52174768315042     -2.53677646676021      1.13657990013656
  H   5.71433419516273     -2.84756137706708     -1.20116669298364
  H   6.14685862274562     -2.80956312740177      0.51741357984558
  H   6.90603802011168     -0.14623984502163     -0.58045280320349
  H   3.58320653350966      3.44308223561340      0.52568217425565
  H   1.23155850083160     -1.96353746122450     -0.83258420925622
  H   3.76477391489142     -2.64962862501963     -2.38532799199854
  H   2.63749570900200     -1.32621064010662     -2.73228074729944
  H   1.32320619175216     -5.30530276081739     -2.59474211442554
  H   0.12203175138959     -4.03317804627986     -2.36682364163145
  H   2.50707672866628     -4.56766283984432     -0.77250353316454
