24
Coordinates from ORCA-job 9782optt
  Br  4.78169556589602     -0.38010344731470      3.04388193595359
  C   5.00398359258830     -0.39522103391956      1.18077288650945
  C   4.48376130144817     -1.40480079086295      0.40355539985966
  C   3.68681705843317     -2.62498228265978      0.73568249954334
  O   3.58752081304092     -3.33290500233586     -0.49455389347420
  C   3.97841542021997     -2.52337229256294     -1.59604638995913
  C   4.66380798341153     -1.34269945112653     -0.97084301406463
  N   5.31302272650486     -0.38931185893593     -1.60982752890214
  C   5.82474401835137      0.57919341418161     -0.85655646534394
  C   5.69904273218391      0.62089852605923      0.52886840732387
  O   6.13862095128310      1.69701632041874      1.25521797877146
  C   7.46434990799067      2.00247154486223      1.32752403534395
  N   7.90369721059696      2.41100238191886      2.43008972441490
  C   8.28932756836618      1.94848227331069      0.07863489312471
  N   7.91708266606541      1.86291872117582     -1.12214569980409
  C   6.57754686637908      1.67955276917245     -1.53045129729307
  N   6.04939604315717      2.33453026415195     -2.46657939712440
  H   2.69330595566694     -2.35786498705940      1.11431400929488
  H   4.17507510216990     -3.26089197634746      1.47698168853021
  H   3.10577979717840     -2.20519215204890     -2.17644138558355
  H   4.64016432005956     -3.09624178004609     -2.24648146828132
  H   8.88403468052393      2.67499650889227      2.35816010961222
  H   9.35679429214218      2.06122385112027      0.26838263409750
  H   6.71701342634222      3.00630047995598     -2.84913966254926
