25
Coordinates from ORCA-job 9785optt
  Br  1.06140456828786      0.04314479021294     -0.87710084623269
  C   2.85294680672140     -0.00418671666272     -0.32817947847080
  C   3.54427446831991     -1.12845616243949     -0.03958018855072
  C   3.23546532926905     -2.59285919989637     -0.00564247405945
  O   4.51889855622844     -3.22101754317971      0.01249550558541
  C   5.56076911340513     -2.29854944239791      0.30253937542668
  C   4.93712306060920     -0.93630474433435      0.18035276060744
  N   5.58942325424804      0.17457618386923      0.22707582464159
  C   4.87171541017979      1.34419410297680      0.04490408987690
  O   5.31835243532014      2.45651324103906      0.11531246236516
  N   3.49645191030971      1.17968489190979     -0.28357076751626
  C   2.46177402511478     -3.08549297748660      1.22244804082057
  C   3.13245943562766     -2.74575994040561      2.56351137519449
  O   2.05605340154530     -2.45657804325366      3.45245395578297
  C   0.91928480063910     -2.22726580763281      2.74830363839939
  O   -0.11778981082742     -1.90216264986655      3.23869410102725
  N   1.19040941519564     -2.43028913523533      1.41314382647618
  H   2.70715733682914     -2.91596825209276     -0.90784382301248
  H   6.37017668281417     -2.42532904105259     -0.41734358716904
  H   5.95944476740681     -2.45603103351419      1.30964478713372
  H   3.00197676616034      2.03942417970171     -0.47816420722760
  H   2.35415715414377     -4.16961753102476      1.11562724304841
  H   3.76372973674884     -1.85722481520836      2.48770647742694
  H   3.71069018613879     -3.57198010100123      2.96762234426592
  H   0.39865118956434     -2.59246425302453      0.81258956416001
