25
Coordinates from ORCA-job 9790optt
  Br  1.14909451913389      0.71079900371898     -0.32313300040796
  C   3.02259307962269      0.43426342740063     -0.26885982266842
  C   3.55816002089775     -0.81501110220409     -0.31230776472944
  C   2.55642078360847     -1.99483037620513     -0.42866911359767
  O   2.98574610219225     -3.26513852218398     -0.85550144300552
  C   3.58845076621432     -4.09261312477945      0.14240265334091
  C   4.62277360629505     -3.25761714435418      0.83762583981252
  C   6.12625368553128     -3.27377347708356      0.83734935729445
  C   5.38794398193075     -2.45753198694661     -0.16828389307528
  C   4.99435912599175     -1.03116144679432     -0.18723520465438
  C   5.90004495187847     -0.03191606750708     -0.07032280894423
  S   5.51175266071167      1.65461369625021     -0.03270931243923
  C   3.74466183406830      1.70793900236959     -0.15058404473447
  O   3.23276553445659      2.79670246612263     -0.12934326102520
  C   7.29750995013104     -0.28705594767822      0.03706490434874
  C   8.48214453731372     -0.45112449904908      0.12441421753252
  H   1.81419676269464     -1.69285479812962     -1.16382339171043
  H   2.03157049996446     -2.06405005977548      0.53449839777643
  H   4.01684161858984     -4.93768316786985     -0.39618950105091
  H   2.82025986310827     -4.46024978894142      0.82928921549723
  H   4.22501093848878     -2.65574701121174      1.64777099385952
  H   6.65629380715873     -4.13084507761864      0.44447788696312
  H   6.59990609838113     -2.79522042946481      1.68338910899340
  H   5.36842999274447     -2.91313121870837     -1.15185484919865
  H   9.53281527889166     -0.60376234935635      0.19553483582292
