28
Coordinates from ORCA-job 9792optt
  Br  1.87164130236826      0.22078869805115     -1.64392544712687
  C   3.43998705756460      0.14994517913924     -0.61640877359247
  C   3.81756910098827      1.10029893760749      0.25627039277869
  C   5.10270948435051      0.93403451829434      0.89869034784483
  O   5.61592983324668      2.97263908897334     -0.99675152018221
  C   6.44588119103442      3.46817174582424      0.03258728687945
  C   5.76148579665673      3.39944910184137      1.39581168892895
  C   5.59368033980016      1.95114183931755      1.89763321861384
  C   4.39839023180867      3.67296440899317     -1.12624744724067
  C   3.57178315073967      3.67371287079175      0.16334635438782
  C   4.44528280986039      4.17253147107420      1.32182900579129
  C   2.97150590195371      2.31796216311059      0.49438370276752
  O   1.85489215662454      2.22516399409986      0.93272590745476
  C   5.83498599266110     -0.16842611705651      0.63746696240787
  C   5.39363871954246     -1.18991936027986     -0.28455241730134
  O   5.94494509180529     -2.20428725658223     -0.57884399967808
  O   4.15885927695069     -0.92893021607610     -0.89991173703252
  H   6.72440644366486      4.50881024489560     -0.18420924525722
  H   7.34979937651438      2.85792360183977      0.01162239043797
  H   6.40894512246942      3.90380770915475      2.11768963323787
  H   4.89916267723722      1.95768040924073      2.74499733623344
  H   6.55241518262162      1.59917390833540      2.27978100110354
  H   3.85744549820484      3.19167098225811     -1.94188079432113
  H   4.59617454051683      4.71571700963900     -1.40998256469068
  H   2.71816682356902      4.34276306004569      0.04394207963419
  H   3.89680731198518      4.10734266499356      2.26370405108874
  H   4.66579111814075      5.22909050324039      1.14510154107506
  H   6.79171846711966     -0.34722116076663      1.10713104575735
