26
Coordinates from ORCA-job 9793optt
  Br  1.27047755647409     -0.05466426406641     -0.28509551062544
  C   3.10487862556925      0.13076114144544     -0.01802980761182
  C   3.76332450484337      1.31398223329030     -0.01074018102291
  C   3.51224719313968      2.71288216323472     -0.47841542346691
  O   2.46312918667699      3.25200931489176     -0.67523591576925
  C   4.91293098277022      3.32948819654207     -0.75674878874215
  C   5.91565716801370      2.45762836047177      0.02418867895869
  C   6.14241470984404      3.04007153044615      1.43815343132549
  C   6.86306354745954      4.30773268856733      1.39184940085994
  C   7.45600855961883      5.34574421742615      1.32153305996815
  C   7.23656180244649      1.91875039046607     -0.57951527927459
  C   7.34904896281037      0.44495617311121     -0.06475572500830
  C   5.89556448466839      0.07204047742321      0.13272143978439
  C   5.15498269796434      1.18342375708117      0.13354843558153
  C   5.19466503107524     -1.18306963798270      0.15541505495488
  O   5.58451379874954     -2.30176351165383      0.18027321263815
  O   3.74684872875535     -1.01384932672896      0.13336139622675
  H   4.92751159794978      4.38641639320264     -0.49515425948078
  H   5.07164971285094      3.24439417326781     -1.83551557193448
  H   6.70165352514480      2.32162851278511      2.04305704738233
  H   5.17712947507459      3.18886578238869      1.93129249935242
  H   7.98145866490004      6.26950431586107      1.27079357569091
  H   8.09913794256733      2.52790829837274     -0.31119733183969
  H   7.15535054390377      1.90413931816787     -1.66779911301405
  H   7.91268009117415      0.38173904136398      0.86935269645062
  H   7.84711090555512     -0.20571973937537     -0.78233702138389
