29
Coordinates from ORCA-job 9795optt
  Br  1.22226256522662      0.15353029291289     -0.31300546143171
  C   3.07559797313167     -0.03744335671905     -0.08620240561102
  C   3.67636814604810     -1.21870445926432      0.08618086801302
  C   2.93010489227004     -2.53216988479092      0.03154516117782
  O   3.70086001192169     -3.61346703456657      0.49792512117137
  C   4.98770154510774     -3.64395690361240     -0.07431734727815
  C   5.82049695777433     -2.50123655575144      0.48891151988914
  C   7.25094438546164     -2.46975668749456     -0.02662485737133
  C   7.97093857986267     -1.24990433879456      0.55754334463642
  C   7.30442330077753      0.05257288768637      0.13627902495321
  C   5.80555726923021     -0.03420400271743      0.09254433874027
  C   5.08850641659449      1.21806787308113     -0.15364340980554
  N   5.54263237572443      2.37630134837251     -0.35498252676121
  O   3.70415473941448      1.13598257862094     -0.14321620816065
  C   5.12086582278260     -1.18949961748742      0.22411991682557
  C   9.43373277272169     -1.28107665653592      0.18918366419367
  O   10.01222601460462     -0.40299508865230     -0.38578122970515
  H   2.61496943414080     -2.72376557696992     -1.00401608118325
  H   2.03448220405467     -2.49581396959229      0.64974775330693
  H   4.92492265147526     -3.57377061136192     -1.16973845400090
  H   5.42822363776701     -4.60662126813642      0.18468885577234
  H   5.84133664925140     -2.65018305782488      1.57533311497479
  H   7.25184502664534     -2.40550445412148     -1.11965115336616
  H   7.77090141931615     -3.39037752594866      0.25085222170310
  H   7.93610264565867     -1.35239049743834      1.65023507288334
  H   7.67725346847718      0.34389711216616     -0.85170626218905
  H   7.61177973232298      0.85537140014146      0.81225772495075
  H   6.55692830763921      2.38183315122250     -0.33662365608064
  H   9.96788105459669     -2.20671509642316      0.48416134975303
