24
Coordinates from ORCA-job 9796optt
  Br  1.91510660139231      0.27411005040952     -2.37667172124012
  C   2.52960138513567      0.53982847756796     -0.62062995327692
  C   3.12633523978000      1.68344946066094     -0.23399971398050
  C   3.11861123478817      2.96711818512190     -1.05297230265209
  O   1.82064917091286      3.40504327588583     -1.38991443678339
  C   0.91095652015890      3.81119855247349     -0.36369055032778
  C   0.15592823496186      2.65404266798418      0.21974959856335
  C   -0.71201000259244      1.76340297160472     -0.36851494929742
  C   -0.74221574663744      0.58413802838134      0.42381867134317
  C   0.08165276304092      0.81682460588656      1.49519708493220
  N   0.56436033150157      2.09333129915880      1.39769614310682
  O   0.77413667048549     -0.07976836306426      2.31111456592371
  C   2.03485188626426      0.05388969310812      1.74006552593366
  N   2.85961173916347      0.83665497083201      2.29949534831296
  S   3.82416104825119      1.81900398032566      1.35648087664856
  C   2.16031037658806     -0.51001468764157      0.34301169182502
  O   1.86904864279157     -1.64679822762803      0.08919055979675
  H   3.61638398170297      2.79936655432831     -2.00822601216494
  H   3.65878357718413      3.75013863364968     -0.50850583188710
  H   0.23552252724109      4.50420069413942     -0.86231614094994
  H   1.44454344435767      4.35736824369305      0.42346389247239
  H   -1.19286020081789      1.89838468317204     -1.32322826127065
  H   -1.22457947747417     -0.35163355741256      0.19828807153251
  H   1.25711005181976      2.48371980736287      2.01709784343974
