28
Coordinates from ORCA-job 9797optt
  Br  1.13238347749907     -0.32126941988896     -0.22709560121322
  C   2.94290812742403      0.12428424056687     -0.27264729753411
  C   3.38500950188591      1.39871901706095     -0.35006646716548
  C   2.74699113723250      2.75583598610264     -0.14527678793638
  O   1.59576693451514      3.05017577681545     -0.25795287685743
  C   3.88326184894802      3.71497213876448      0.31431759769135
  C   5.20390707409660      3.04882638866985     -0.12256325622066
  C   6.40239432862558      2.83531752437432      0.83696949556288
  C   6.92713487492554      1.38233350810437      0.51428029984300
  C   5.66067841598622      0.71198151257286      0.05687891258021
  N   5.24063973883256     -0.58165506563749      0.13899566963942
  C   3.91491097463683     -0.99114450626444     -0.14023841674753
  N   3.54592992636945     -2.20562449652148     -0.20773825610651
  C   4.77320620394981      1.63905510143496     -0.31019916110378
  N   7.40423559324376      3.86934869675647      0.78143739181960
  C   8.27237052257808      4.08421803504508      1.82734802440577
  N   9.37929429268863      4.69811168750268      1.83070259824696
  H   3.81251878921073      3.76642561847726      1.40528622579692
  H   3.70820248594337      4.71432055812579     -0.07778916546556
  H   5.56084652967448      3.50347961526334     -1.05401276235284
  H   6.01280721675227      2.81324624522109      1.85843394717975
  H   7.38468208578901      0.91429522418732      1.38730430360053
  H   7.68152711338048      1.42058685870918     -0.27723433669697
  H   5.88321625119681     -1.31135925061657      0.40674030877437
  H   4.31529936529238     -2.85777053072572     -0.07478433427579
  H   7.74690009214345      4.11257075923219     -0.13797515972384
  H   7.89876601088755      3.67937296205982      2.76993382073279
  H   9.63721108629166      5.03334581460767      0.90194528352654
