29
Coordinates from ORCA-job 9798optt
  Br  1.14157290874281     -0.04207401847098     -0.30923732036489
  C   3.00072690702159      0.15058079973995     -0.12708561400215
  C   3.62570954089918      1.38428893377679     -0.05422494675894
  C   3.07967213568703      2.77789684248229     -0.07837323737225
  O   1.94124907198774      3.10388350993511     -0.25806607217866
  C   4.25312305330953      3.71346026648757      0.19118320014304
  C   5.53442144322783      2.85834396757108      0.12872298342179
  C   6.46844534469738      3.08375134308519      1.32219123162860
  C   7.01881740432959      4.50789745112983      1.32084599557802
  C   7.62094218645502      4.90592942438653     -0.00809974463800
  N   8.63339378063606      5.65462248054671     -0.17458662027723
  N   6.91471814805647      4.47058618526717     -1.11560290542003
  C   6.32580108039460      3.14218655881819     -1.15198926681382
  C   5.00577956996573      1.43869390060921      0.08081278489680
  C   5.72201449337517      0.25099159586352      0.13291822295115
  N   5.12388898874543     -0.93430052879428      0.06776092308270
  C   3.80205816224693     -0.98544286195878     -0.05713619476857
  H   4.09697179377121      4.13626211587682      1.18777952284938
  H   4.25214567715294      4.54485270281580     -0.51368974076362
  H   7.29706064304219      2.37257287457799      1.26348684514412
  H   5.93694259928958      2.88218975651250      2.25452046065214
  H   7.76819022276709      4.63480457910183      2.10108862744335
  H   6.20973662917596      5.21467839431735      1.52920907112106
  H   9.00493008173446      5.96874386114582      0.71732266790525
  H   7.36826771632931      4.75827491515186     -1.97278161634993
  H   7.09062273698545      2.36322511316395     -1.27251135502913
  H   5.65960356536053      3.08279740547327     -2.01535918223908
  H   6.80228740848487      0.24074755941965      0.23328729434498
  H   3.34890670612822     -1.96844512803198     -0.10738601418609
