28
Coordinates from ORCA-job 9801optt
  Br  1.14136831026309     -0.05301855056276      0.44903453716674
  C   2.99555619255174      0.05106360342030      0.20159410522193
  C   3.63506849669848      1.23210046260293      0.22936898187369
  C   3.11367178514111      2.61989575924082      0.44367050640486
  O   4.20601397279818      3.47782264227208      0.11373190465619
  C   5.44014968249314      2.77557630445553      0.14801819676610
  C   6.20004324508742      3.09802176074006      1.42878344122804
  C   6.52167917790030      4.58434256354206      1.60710322736044
  C   6.42689893539625      4.75869422148943      3.11653694545852
  C   5.45131787177881      3.67488216584558      3.53085236208264
  O   4.82964688945933      3.58089982947667      4.54038798983051
  O   5.37628442321621      2.74652653721686      2.54365340184172
  C   5.04567877517229      1.32892604357468      0.03508894681738
  C   5.74935278678813      0.20847704069010     -0.18819433440482
  N   5.09853041932770     -0.99501312432423     -0.21742899398078
  C   3.72452657034447     -1.19783806328808     -0.02974343750552
  N   3.14758590644796     -2.33351695566341     -0.06015476170315
  H   2.81053263596323      2.76060989043497      1.48569907177460
  H   2.27386789478013      2.85878951338822     -0.20931007310233
  H   6.04797215693478      3.11512088326023     -0.69667895676405
  H   7.10683197743684      2.48392886279696      1.46727967973968
  H   5.75635701925312      5.17599736768218      1.10465900353474
  H   7.49466718954047      4.84027281765891      1.19305863471397
  H   6.07435550817782      5.72903102159597      3.45443198799499
  H   7.37536447416466      4.54897777209287      3.61694740164100
  H   6.81807443521655      0.17287012982995     -0.35068185437914
  H   5.64225134773453     -1.82677088370191     -0.38326222229735
  H   3.79535191993322     -3.09766961576699     -0.23544569197062
