30
Coordinates from ORCA-job 9803optt
  Br  0.97712243198016      0.07294800963584     -0.23579530629037
  C   2.85188933838811     -0.10535956757047     -0.08864420192625
  C   3.64724139429422      1.03264518572705     -0.01588746068322
  C   3.04202959605836      2.41303898807425      0.02649723881667
  O   3.97041006416520      3.39290148855608      0.40384293473968
  C   5.15635786912343      3.30017993336767     -0.35111970896278
  C   5.95576098214366      2.05985567428655      0.05465963542379
  C   6.60824752254009      2.28148138965092      1.44774931484949
  C   8.07144701103366      2.66305213292739      1.14972279931089
  N   8.07341864137081      2.94760702842584     -0.28599765197034
  C   7.18056460427112      1.95555226193793     -0.86979237897521
  C   5.03037790752612      0.86381045086303      0.03119691316632
  C   5.51323617934002     -0.44413877630501      0.08124390067759
  N   4.75564833557363     -1.52587595368359      0.04805280674186
  C   3.43234808538461     -1.37400379833450     -0.05125032410601
  C   2.63867707164522     -2.56826471299781     -0.09406645119678
  C   1.97750459408572     -3.56644449810427     -0.12643947262902
  H   2.23367529990033      2.43857601945789      0.75667053504806
  H   2.60605867538833      2.64768692971329     -0.95540966579445
  H   5.73709303140665      4.20045391253968     -0.16339991714855
  H   4.91186076489863      3.25574497619886     -1.42158551029770
  H   6.55913891386741      1.37696361651511      2.05247550687489
  H   6.07066310687916      3.06240936083412      1.98515786221633
  H   8.72884408066393      1.82123657939458      1.40319719095353
  H   8.40531947753006      3.53320524739563      1.71390824968072
  H   9.00171135506195      2.92230913551608     -0.68693775630252
  H   7.59993099791039      0.94124012357727     -0.84617676188748
  H   6.93866114861055      2.19931553535230     -1.90571020753969
  H   6.57946263156392     -0.62579066213974      0.16388511797628
  H   1.39029888739447     -4.45333601081200     -0.15204723076571
