28
Coordinates from ORCA-job 9804optt
  Br  1.13223725306465     -0.26399855766110      0.05106096333294
  C   2.99306468046078     -0.06385772367995     -0.06640866201261
  C   3.56501076795263      1.18599755889860     -0.03133082498965
  C   2.98243812134443      2.55667075439119      0.08217789567295
  O   4.10572030751390      3.42911185973864      0.06499278327076
  C   5.34623835250209      2.72821456281594     -0.00348012146902
  C   6.21484896771088      3.00738020069194      1.21799585607019
  C   6.56927487817972      4.49070989314008      1.38820914823092
  C   6.64523031163376      4.61834685897558      2.90189446861136
  O   5.58324762491766      3.80950323010402      3.37249355811254
  C   5.52649723413631      2.65341579068231      2.55590928159837
  C   4.94629038928797      1.28239008426661     -0.10450450266719
  N   5.78204446198957      0.26251529032716     -0.21020969090438
  C   5.22674171338226     -0.94235504911962     -0.25561551612406
  C   3.84733831746162     -1.16536562230484     -0.18824597350319
  C   3.34860755523841     -2.50480201853890     -0.24373806615649
  N   2.96588392852697     -3.58483862758245     -0.29334605707945
  H   2.41824228843217      2.68671927523466      1.01091789226279
  H   2.31939968966967      2.78943342546260     -0.75605084855809
  H   5.88033787565294      3.04116500767531     -0.90728689390649
  H   7.12354350796904      2.41292560060311      1.09975631771118
  H   5.75610019681522      5.11137998156037      1.01024627635684
  H   7.49447451695351      4.76334243615828      0.88234108242428
  H   6.48850601404110      5.62917048240941      3.27387836039145
  H   7.60605610203665      4.24514868485060      3.28044061422226
  H   4.47420678790449      2.39099672110040      2.42775298079286
  H   6.03370513872892      1.81796629505291      3.04815845609457
  H   5.89171301649259     -1.79328639525290     -0.34500877778566
