26
Coordinates from ORCA-job 9808optt
  Br  3.10540077486733      0.38935234682247     -2.97869053445477
  C   3.00234319390997      0.26091397417367     -1.10194181667086
  C   3.04251695731390      1.38285534330454     -0.34395436766729
  C   3.12659899612084      2.80414884801746     -0.91121868180959
  O   2.09458030317997      3.20004988955033     -1.79567461978040
  C   0.94403439160707      3.84221372628942     -1.24649053827624
  C   0.32609848896733      2.98800344021698     -0.18842005377659
  C   0.30528344231450      1.62180628422586     -0.24961412758752
  C   0.38627955545222      1.15904038339310      1.07510168505016
  O   1.02153474239202     -0.04410614692133      1.36857211648034
  C   2.37524620135121      0.03237680316243      1.32721341410546
  N   2.91106187131694      1.33675604550582      1.10741080734013
  C   3.09608751719088     -1.04153264995896      0.92785935621108
  C   2.82979725273667     -1.17693214608822     -0.55602760359151
  O   2.67023844457664     -2.12251507273616     -1.25552024987127
  C   0.29068430783019      2.22797280039505      1.92768935700121
  N   0.27335110606471      3.34149115433281      1.13870621803445
  H   4.04395716078096      2.86989283962335     -1.49915667899974
  H   3.19362698967991      3.49398521656683     -0.06398184612810
  H   0.29559478780550      4.00977684793723     -2.10507219601097
  H   1.21922270952409      4.81649262070871     -0.82361609312102
  H   0.44418245946450      1.03895855038977     -1.14409177351863
  H   3.78556298741671      1.53407679881359      1.58252263400045
  H   4.16711684416008     -0.87197448127806      1.02795103040406
  H   0.34359054075967      2.28057092278548      3.00087364816936
  H   0.20200797321614      4.28532566076780      1.47857091446780
