28
Coordinates from ORCA-job 9812optt
  Br  1.38736020048827      0.07691224145286     -1.10419632386586
  C   3.18787403415701      0.11287813198875     -0.51242504280648
  C   3.75501672865786      1.29757022778690     -0.04887254190383
  C   5.11486689416013      1.17432820433851      0.27829172080978
  O   5.84533126819018      2.22228070647112      0.67172683732119
  C   5.32599835850818      3.50410802258313      0.33300409706805
  C   3.89518749072102      3.68225833808897      0.79193577418686
  C   3.28806040703289      4.96836553071786      0.21520702004720
  N   2.89270366031248      4.63450337446968     -1.14763401674914
  C   2.41839442090006      3.25470759390000     -1.10646260949759
  C   2.99881913704710      2.58795161866022      0.18166508039193
  O   1.86434361115088      2.36935465850601      1.03696475832873
  C   2.06737797943510      1.75693793216389      2.22912577842462
  N   1.15268100559805      1.49004103179474      3.04178446642808
  N   5.77302019243272      0.02641293017697      0.23699315266436
  C   5.09078883908038     -1.02380050249940     -0.17977975294086
  N   3.82592503701050     -1.03500162390881     -0.58859001016269
  H   5.40435004052913      3.62708986508625     -0.75315311805680
  H   5.98685524465378      4.22334639653754      0.81188131049969
  H   3.85913171603904      3.64517767930831      1.88179362047964
  H   3.97580878820799      5.81434643781363      0.22837755103429
  H   2.40244487099183      5.24331939249534      0.79157225483832
  H   3.67671368397868      4.72814704986949     -1.77904256950509
  H   2.69627583885138      2.71674530360280     -2.01083506263691
  H   1.33260486898336      3.22659069690549     -1.01473405617187
  H   3.10254431332178      1.49914748509303      2.45271067139045
  H   0.24505651327939      1.78461033648258      2.67872935638986
  H   5.61646485628076     -1.97132905988589     -0.20503834600595
