29
Coordinates from ORCA-job 9814optt
  Br  8.68460141894777     10.34051710061695     -6.84332730371306
  C   6.88666983638661      9.77883378221349     -6.91857018304437
  C   5.96833918222095     10.05451199706185     -5.93975851147215
  C   6.49687723643438     10.92175608565529     -4.76796587136413
  O   7.42117042120731     10.26697905839162     -3.88987863392452
  C   7.02177818489777      9.50291282814755     -2.74654689132432
  C   5.78617985642204      8.73081675682218     -3.14209224577804
  C   4.95928876604515      7.51333725637892     -2.67859978983590
  N   3.82259223863064      7.65942909637486     -3.65605725896977
  C   3.78575575668118      8.89649120989118     -3.94212136615737
  C   3.36643533139194      9.59380557701840     -5.19832431933457
  C   4.59385181888786      9.55513100548318     -6.13842409737149
  C   4.35106420308868      8.86564181276170     -7.28087856561248
  N   5.28855089012342      8.63773243591478     -8.23028215242576
  C   6.60494912949734      9.04402506670154     -8.15273108640241
  O   7.38515266598134      8.79609609962630     -9.04645214773162
  N   4.70325689961470      9.71958733296368     -3.23003670508005
  H   5.68263084647340     11.39344598142079     -4.23578570221295
  H   7.10628519992361     11.69516790536552     -5.23083762545160
  H   6.83165297043293     10.16309294826397     -1.89323989158563
  H   7.87666628209333      8.86761299609900     -2.51857021425419
  H   6.02350210666649      8.44772230188061     -4.17177634183724
  H   4.60411755106829      7.58858403997580     -1.64630886235186
  H   5.42622866631739      6.54337281502524     -2.83117070326477
  H   3.07567879466761     10.61770057446634     -4.96260666285571
  H   2.54126743862874      9.09203944494020     -5.69792295437046
  H   3.37886437290157      8.44387008109903     -7.49213994759505
  H   5.05279776038224      8.12703640564050     -9.06929584851305
  H   4.36079417398522      9.92075000379941     -2.29029811616541
