22
Coordinates from ORCA-job 9815optt
  Br  0.95715467605121     -0.02828570999546     -0.01516170847923
  C   2.83369499915185      0.02029504061209     -0.01987096282932
  C   3.52828016184975      1.19141687880392     -0.01940617116927
  C   3.13050770785600      2.63380190734332     -0.01667393607357
  O   2.02120593681112      3.08511223869050     -0.01440863296999
  C   4.43257681428458      3.46532080327279     -0.01755657643629
  C   5.52552978982216      2.43084064261565     -0.02089167286148
  C   6.89434841903127      2.49112711766017     -0.02281088943116
  N   7.66967879939909      1.37895271074616     -0.02574475059148
  C   7.11465628077402      0.18944211058752     -0.02685140707843
  C   5.71581100414454     -0.00480576021863     -0.02502379584528
  C   4.96528831492413     -1.21705056288339     -0.02592274645383
  C   3.56322578931181     -1.20586503843797     -0.02355891723665
  C   3.07183484062700     -2.54902359555258     -0.02565364837616
  N   3.97049115359561     -3.48719002658242     -0.02913432529547
  S   5.49153130690364     -2.84244883930895     -0.03016745456810
  C   4.94663753424842      1.15408185556923     -0.02196345365620
  H   4.44486421592508      4.10958686620986      0.86331490738979
  H   4.44205464999429      4.11207373761869     -0.89665102865867
  H   7.42952009702106      3.43370687325893     -0.02210054572291
  H   7.78647952872878     -0.66444277903784     -0.02908559748948
  H   2.02262797954454     -2.81464647097160     -0.02467668616683
