23
Coordinates from ORCA-job 9820optt
  Br  1.29012100975976      0.06336344145626     -0.61530854956739
  C   3.14510973006684      0.22875531332219     -0.49654258612346
  C   3.79353200748319      1.40868140463574     -0.61468346187417
  C   3.31659627346049      2.83134256103337     -0.42856939658257
  O   2.24229831286007      3.29379533763627     -0.65074357995220
  C   4.48941199265507      3.59294952647894      0.25307971923583
  C   5.76922773140346      2.79954041229416     -0.12421980759828
  C   6.46948968248130      3.45944581429016     -1.23432617216656
  N   7.01101319133471      3.99857026589533     -2.08846416430777
  C   6.82682739876613      2.41398009703266      0.95148422432215
  N   7.59166837490169      3.11088250994545      1.65816842046062
  N   6.84668211932982      1.00518325321957      0.98922555372805
  C   5.80746740915257      0.48726995410414      0.25118976009223
  N   5.21433933495119     -0.71892171069421      0.38076166315211
  C   3.91483270938818     -0.98863021184006     -0.15807676187276
  N   3.42800961738497     -2.15393344490281     -0.24093738251971
  C   5.19761026886240      1.45599899353476     -0.46420316312810
  H   4.31872368940284      3.52709159337827      1.33068182222303
  H   4.50075842052685      4.64016151830702     -0.03845283738787
  H   7.46201407585398      4.10637009099742      1.49605518364037
  H   7.45716303831585      0.50982990958666      1.61840800640882
  H   5.64746219167033     -1.46223188116287      0.90706246592654
  H   4.06964141998822     -2.88049474854841      0.06741104389111
