27
Coordinates from ORCA-job 9822optt
  Br  5.76395577660118      4.14046412998900     -5.66279508331125
  C   5.44222811872976      5.05304473000985     -4.04581524649185
  C   6.10155024660451      4.71916558050014     -2.86658469697250
  C   7.09481074141089      3.64543902611659     -2.57070954376489
  O   7.60257601006521      2.88839048833785     -3.34952375161383
  C   7.34368973067717      3.66708791423345     -1.06532872701857
  C   6.66293738985942      4.93825190752380     -0.52958148849225
  C   7.69277972302817      6.02251605803056     -0.16894925967458
  N   8.73598181559559      5.65574238751108      0.77589827326082
  C   8.57821614715155      4.82262224685530      1.69951845208428
  O   7.44801533018911      4.17546532629546      2.09021322992338
  C   6.23247146547719      4.85195851906311      1.82302849292092
  O   5.76060794224602      4.64969089561517      0.53892272322939
  C   5.82431193672923      5.41747052055481     -1.69827959077023
  C   4.88652580401618      6.43458666766532     -1.66671407337677
  C   4.23183151960399      6.75568476137140     -2.84704720725381
  C   4.50714244261614      6.07590794530261     -4.03076412714998
  H   8.41198013413594      3.61206063515002     -0.85774990998825
  H   6.86810681860841      2.78784021759039     -0.62822493331635
  H   7.17657480098707      6.92502825197249      0.17081567527090
  H   8.19700437286457      6.29786305682459     -1.09721050528635
  H   9.42209905330017      4.52045403393750      2.31314710281330
  H   6.38354279780628      5.91497809958940      2.03750109000048
  H   5.49335036979260      4.43053713162062      2.49836314600626
  H   4.65934227365727      6.95117035123875     -0.74306250346432
  H   3.48984253825406      7.54338521370552     -2.85731540117072
  H   3.98752469999219      6.33519390339514     -4.94275213639320
