22
Coordinates from ORCA-job 9828optt
  Br  1.23101998427365      0.38487509390194     -0.86133872409574
  C   3.01234655540015      0.10719834436423     -0.32553282041229
  C   3.58605585065050     -1.15369152267260     -0.11360551885411
  C   4.95828140686028     -1.19069624732443      0.17907379501654
  O   5.64324746938437     -2.33863451203086      0.34617731780378
  C   5.15533461869794     -3.43817742873134     -0.41963026093698
  C   3.70408603277129     -3.63238174581986     -0.15313577276997
  C   3.09671551194721     -4.79445330435797      0.09259400700224
  O   1.78109252833332     -4.88047482734097      0.30485784676855
  C   0.97607494693169     -3.72976326683397      0.23380462121580
  N   -0.27209436967765     -3.84376925382527      0.28887614712494
  N   1.60432375225075     -2.50093538177783      0.13261444036939
  C   2.86885282638393     -2.44967325341541     -0.07460806101404
  C   5.64077166862480      0.02016716443507      0.34967027406315
  Br  7.46062160662842     -0.01811525702440      0.85845969669674
  N   5.07603128821110      1.18347292858691      0.18017672948935
  C   3.79596993242356      1.23864537649658     -0.17496341485493
  H   5.74830647875057     -4.30325709825031     -0.13166449798061
  H   5.33526188003478     -3.21799815232918     -1.47751668039181
  H   3.59166858962024     -5.75624931753380      0.14815029869377
  H   -0.54583549242528     -4.82058873609994      0.36206985579891
  H   3.37286693392436      2.22050039758343     -0.34152927873267
