26
Coordinates from ORCA-job 9830optt
  Br  1.34610621627712      0.05487340949557      1.32717265748782
  C   3.05726532310161     -0.03386062983043      0.55063750665132
  C   3.74367078810338     -1.17307199088009      0.34687598602162
  C   3.34366608800355     -2.55319303350785      0.78845861683403
  O   4.42595554143870     -3.15599524919795      1.47110934333036
  C   5.61392278149606     -3.31249577649212      0.71233962170187
  C   5.64526060738405     -2.43272960795807     -0.54374812581095
  C   7.02352139458326     -2.36245081375990     -1.15949521675923
  O   7.93305500425999     -1.62033518802324     -0.35216610815330
  C   8.08324338888588     -0.30405401034164     -0.61502032717665
  O   9.15212652177675      0.22567061195339     -0.56077973020697
  N   6.92474477008841      0.37556951894644     -0.95071474625646
  C   5.63213947407452      0.11615329526536     -0.49325134553376
  C   4.86647530594372      1.35090910800533     -0.30347499265801
  O   5.29429681069398      2.45888042137452     -0.57414581329683
  N   3.59142882864270      1.17144280679616      0.19233675807897
  C   5.04992236358678     -1.08627494171861     -0.24930022643391
  H   3.03316148704388     -3.16635435732982     -0.06760485616851
  H   2.51554483376783     -2.51688005815139      1.49175485902444
  H   5.72305403766600     -4.36106607210337      0.41449539446549
  H   6.44834580904522     -3.04674559866212      1.36372245371422
  H   4.99229067791338     -2.89970663715832     -1.29138167129925
  H   6.97276108264829     -1.92175365405878     -2.15639770507991
  H   7.45361652237879     -3.36047209208911     -1.24656490158396
  H   7.08313503812112      1.36808874817397     -1.09715092894957
  H   3.05828930307494      2.01985179125211      0.32729349805714
