23
Coordinates from ORCA-job 9832optt
  Br  1.12252060525388      0.12969991059786      0.15818367421755
  C   2.97849677333041      0.05986278066075     -0.09306284569071
  C   3.70315288888495     -1.07091984113490     -0.00376631876943
  C   3.41248485764667     -2.50703375015772      0.29640975804519
  O   4.60917203932824     -3.17806236073949     -0.10755635170995
  C   5.71353573672768     -2.28386171621491     -0.06223072018761
  C   6.43908021351743     -2.39657665328314      1.25253612979740
  C   7.05207811809834     -1.44016389164588      1.95972961720040
  S   7.82782537805096     -2.09318791768247      3.37338713137439
  C   7.26766906431018     -3.74521641642902      2.98358529934326
  O   7.46734829447257     -4.73713282766328      3.63043659137488
  N   6.56088744069509     -3.65739714745742      1.80743178731280
  C   5.09742315270910     -0.91467609284113     -0.22818016406579
  N   5.74462075149046      0.16621981689016     -0.49635817394266
  C   5.01173062004163      1.34327669938682     -0.58038522319917
  O   5.46975137092584      2.43044070046475     -0.80584700452545
  N   3.61103871655853      1.21776627326691     -0.38013496010141
  H   2.58281655281291     -2.92001585032799     -0.27602723017270
  H   3.22482551193029     -2.66825067966575      1.36364664113775
  H   6.37817604514767     -2.53615500812166     -0.89101444704855
  H   7.11913558822089     -0.39779765015152      1.69659508279062
  H   6.08862835389321     -4.46830463517460      1.43490282208162
  H   3.09160192595298      2.08148625742368     -0.45528109526243
