26
Coordinates from ORCA-job 9833optt
  Br  0.96145279909025     -0.03429191335064      0.10853005551782
  C   2.84089702405581     -0.02277823534785      0.04768802919112
  C   3.54065298645868     -1.17378655896583      0.10732797999990
  C   2.95245755026341     -2.56129886932353      0.15998380584419
  O   3.68521636366331     -3.41470192095949     -0.68635008349296
  C   5.03096580356862     -3.59761146577621     -0.31085847684835
  C   5.54378687773440     -2.41805988338638      0.53466626987631
  N   4.92686259235052     -1.17454501275815      0.08497395706292
  C   5.60835481087493      0.01260629634690     -0.04622458500745
  C   4.94435531280518      1.18168975367952     -0.13158795977863
  C   3.49308426109975      1.28322341109844     -0.05988421075146
  N   2.81177928793627      2.36377923025198     -0.09596691775826
  C   7.09776281698045     -0.04265873233398     -0.12886349549408
  N   7.88528828011658      0.89564193644810     -0.43245541500167
  N   7.67642173855836     -1.27432802292746      0.15908214028087
  C   7.05260527444054     -2.43269996733627      0.50541478027816
  O   7.65528523528070     -3.44286978563953      0.77211507462090
  H   1.93311693536502     -2.54281694929280     -0.21065773559548
  H   2.93185122711887     -2.93681927795087      1.19182213179658
  H   5.61196995566510     -3.67480313495591     -1.23052710331694
  H   5.16165529579988     -4.51631331753944      0.26481453123361
  H   5.26909472842972     -2.58222487184043      1.58223250238119
  H   5.49514455359468      2.10418573237413     -0.25040471858188
  H   3.42073937088947      3.17462792475987     -0.18612590104150
  H   7.40162981069299      1.75958139863979     -0.65004845156039
  H   8.68856910716645     -1.29872776391396      0.11630379614547
