26
Coordinates from ORCA-job 9839optt
  Br  5.15091340891691      3.41347702869686     -0.91294761103199
  C   4.73618420708085      1.56333892426752     -1.01430777775635
  C   5.67443307280818      0.68727908784726     -1.55004337544509
  C   7.03124683090323      1.11831919181148     -2.03926448839825
  O   7.87751613373497      0.03349506195564     -2.31122109921441
  C   7.24816223512685     -0.96986204936171     -3.06201517950479
  C   6.17379304952575     -1.67692670879936     -2.22573292239388
  N   6.84293614421815     -2.42930849917851     -1.14720836906077
  C   6.81153411273064     -3.65173548483643     -1.49834873316200
  N   6.19147568713805     -3.94405948931811     -2.68705797624007
  C   5.42032184950630     -2.77234044189442     -3.04611345172876
  C   5.32739950254254     -2.50725555147935     -4.52409607494114
  O   5.81131213184106     -3.19788766013730     -5.37422452256672
  C   5.24928172587365     -0.63493364603400     -1.63355995378452
  N   4.05171710456765     -1.02566648186385     -1.20178070844220
  C   3.26960559552876     -0.09625228643894     -0.68132718683180
  N   3.55658653329156      1.19896511881586     -0.57254839855012
  H   7.52520927891509      1.72386167664642     -1.27963220664869
  H   6.90544110781046      1.74679303792728     -2.93309786149871
  H   8.01095759023893     -1.68912047867815     -3.35828617532351
  H   6.80116421785577     -0.53662955028762     -3.96962522931992
  H   7.28199961359399     -4.44399824889012     -0.92782062780929
  H   5.85532005603228     -4.86921332568927     -2.89711477302110
  H   4.39188385477283     -2.82714450044713     -2.66452450239647
  H   4.73066433646415     -1.61112141770940     -4.78703226457770
  H   2.29894061898131     -0.41007330692466     -0.31606853035172
