22
Coordinates from ORCA-job 9844optt
  Br  1.16724818969338      0.10030248286296      0.37867126115774
  C   3.02214307826991     -0.03396570965022      0.14436122957688
  C   3.68386988420705     -1.20376853215357      0.16164873868069
  C   3.25531876551989     -2.63056405479012      0.34421756875759
  O   4.39156841884318     -3.37746561039453     -0.08646288138376
  C   5.56821216124381     -2.60883613783354      0.03980155713998
  C   6.27141655409431     -2.87090157338722      1.34611163544879
  N   5.61026356810667     -3.12138154625112      2.43160794539376
  O   6.52723373267848     -3.29403650065815      3.40140433503401
  N   7.78011680482807     -3.15009675423470      2.92732536950124
  C   7.65860020947904     -2.88683077536483      1.66632204858175
  C   5.09100621008164     -1.17449606475780     -0.03300831899034
  C   5.77827565268044     -0.03167076309129     -0.22526850422355
  Br  7.63380034496832      0.00630180011716     -0.47861675409246
  C   5.08263082138102      1.25323675306805     -0.25007764253311
  O   5.58068525442228      2.34097292757495     -0.41950887707966
  N   3.70017476925160      1.12896742443625     -0.05346785080833
  H   2.40780309378888     -2.91210639846944     -0.28006193558272
  H   3.02895185632943     -2.85311002651946      1.39122965042216
  H   6.23846040447605     -2.85331149207686     -0.78652491006178
  H   8.51713924094787     -2.72067555391464      1.03827622449910
  H   3.19708098470857      2.00643610548812     -0.06997988943798
