20
Coordinates from ORCA-job 9850optt
  Br  0.92083179949166      0.00347680424111     -0.14464724173860
  C   2.78183336544044     -0.18383999755674     -0.07040857509321
  C   3.46368184102584     -1.35101854826028     -0.01486817099278
  C   2.76201334143928     -2.70117635639546      0.01062357500397
  O   1.55330754481966     -2.78603661347915      0.04353449262567
  C   3.59226348095915     -3.90597131830600     -0.00551581803634
  C   4.91673707543943     -3.74290215415695     -0.01276019409083
  O   5.89302637793526     -4.68762911134948     -0.02283829805540
  C   7.11903758645739     -4.05126219810923     -0.02177283869124
  N   8.24259941918530     -4.57476852147876     -0.03279682385661
  O   6.92551342266243     -2.70314576251127     -0.00687938517442
  C   5.58005457639410     -2.47878839045654     -0.00583541371523
  C   4.92038273111736     -1.31598811344621      0.00096721112068
  O   5.68086923219733     -0.18403490868688      0.02001178191951
  C   5.21412672422133      1.08521843558271     -0.01562305676633
  N   5.96171767917691      2.08584612973572      0.00463385591810
  S   3.48049325146253      1.40310548377932     -0.10186822248798
  H   3.09917552249983     -4.86568753628194     -0.00088852898560
  H   8.18405044561388     -5.58800370310611     -0.04354329395037
  H   6.94628458246081      1.82660638024217      0.04847494504702
