23
Coordinates from ORCA-job 9851optt
  Br  1.29760576736335      0.51722441591676      0.14086100952746
  C   3.10202212284729      0.06116544067924      0.11145339055709
  C   3.56589684547032     -1.21825979117575     -0.00320858244264
  C   2.90489496929305     -2.52374536819530     -0.10581867401037
  O   1.72585888599085     -2.75398059099062     -0.11157959528553
  C   4.01187652264203     -3.57635181440069     -0.21394041920514
  C   5.34544625952364     -2.84294669778060     -0.09393583824177
  O   6.10264522651329     -3.25410924773624      1.02403788310868
  C   7.45843611423075     -3.09578603035751      0.67791706522127
  O   7.53018384107466     -3.25648915964746     -0.73355701807641
  C   6.30850471623662     -3.07655903579725     -1.25960510121468
  O   6.05091073076714     -3.11302103608605     -2.41823702290853
  C   4.97836808296078     -1.36106898082562     -0.00230381354257
  N   5.86433458263488     -0.43366584425637      0.08924121751582
  C   5.40219078011128      0.87465355119831      0.19735031454249
  N   6.09330782321183      1.92781627598835      0.28297136747093
  N   3.98725062051984      1.05216252658857      0.20910715418101
  H   3.92024472695257     -4.07621182611065     -1.17950227319673
  H   3.90399725974129     -4.31872235191947      0.57585775351250
  H   8.03746319632562     -3.88208158663190      1.15496984323086
  H   7.81852572304135     -2.09887970449703      0.93375544980660
  H   7.08158227267147      1.69412926704382      0.26042362541279
  H   3.68145292987605      2.01372758899347      0.28574226403685
