24
Coordinates from ORCA-job 9859optt
  Br  1.21131566116004      0.50602727241092     -0.11416433188510
  C   3.03936183582065      0.11427242200027      0.00412062399040
  C   3.53586510052398     -1.12880349587549      0.06431843349911
  C   2.66470956660953     -2.35529126261582      0.09020377546610
  O   3.35655035338413     -3.51417680050336     -0.29235310646419
  C   4.53046857038221     -3.70259292727404      0.47806169624599
  C   5.56560415341475     -2.64532508949290      0.13774383768255
  C   4.97766680518007     -1.26001172372414      0.13597507703000
  C   5.73134001661237     -0.14394667699457      0.14858257457714
  Br  7.61259753940091     -0.23491214964967      0.19978734802690
  C   5.15925326973195      1.20260630139175      0.09619986235236
  N   5.70431349148106      2.33211510666500      0.10594191475344
  O   3.77333207808476      1.22159820425990      0.01027222086949
  C   2.01248163838197     -2.56081382961968      1.47725296960173
  O   2.00962696081191     -1.72094023041592      2.33294262432104
  C   1.37673992446296     -3.85961372413927      1.66014606564571
  C   0.84349269464243     -4.92270850272581      1.80109557163068
  H   1.83868146204465     -2.24350684845922     -0.61759545745650
  H   4.89917559636172     -4.69799548336608      0.24100212582759
  H   4.28774573024275     -3.67655462077528      1.54807702219922
  H   5.97123690683245     -2.83891063570827     -0.85982884128654
  H   6.40196352402806     -2.69558520520550      0.83549429765411
  H   6.71434615322793      2.25212983847031      0.16334467537935
  H   0.36913096717674     -5.86705993865311      1.93237902033940
