26
Coordinates from ORCA-job 9860optt
  Br  1.39437932754101      0.09651535369231      0.26604748892495
  C   3.27426653622994      0.00970418327816      0.03766963548382
  C   3.91968522530721     -1.22248302257407      0.02345841771538
  C   3.14267059766490     -2.51305156688735      0.15222187316697
  O   3.88574830155744     -3.64677268251646     -0.21533648816948
  C   5.13920198843092     -3.68422037463472      0.43680565497966
  C   6.03409389357656     -2.57323260713208     -0.10284008264967
  C   5.31064042900323     -1.25235740901209     -0.10969251425655
  C   6.00669243175751     -0.05309765728375     -0.25956675727406
  Br  7.88043779343129     -0.05253709004190     -0.50666036335885
  C   5.33821143998500      1.16522434267429     -0.25661328064125
  O   5.99737852129372      2.35268614189848     -0.45115953939202
  C   6.76496268721106      2.82538479405793      0.58283813443511
  N   7.40381924690880      3.89556225647157      0.53679858539228
  C   3.96344019194408      1.19881075543889     -0.10016297657608
  C   5.75316573992338     -4.99397114089206      0.22626208091505
  C   6.30877386170233     -6.03748652593170      0.04501002124831
  H   2.27367797116891     -2.49137338795034     -0.50371974482197
  H   2.77474873239330     -2.61327607547680      1.18343612277890
  H   4.98767215792439     -3.53628921274346      1.51576005508036
  H   6.34716010529073     -2.82914335931576     -1.11832964574785
  H   6.93896786153013     -2.50650106726836      0.50173763092658
  H   6.75955602452086      2.18833017226593      1.46584930452090
  H   7.29473793330536      4.35834267543329     -0.36608867496845
  H   3.45351270373381      2.15191296004512     -0.09684250363236
  H   6.78839829666404     -6.97368045559505     -0.11488243407968
