28
Coordinates from ORCA-job 9861optt
  Br  1.08494825593350     -0.08694276363282     -0.06196368028404
  C   2.98603411796694     -0.06030693750922      0.00718611014387
  C   3.65344716196508      1.15558993891526      0.04392298523889
  C   2.88690803217803      2.45936455240896      0.05381565626575
  O   3.68730105358313      3.57555713665778      0.33560273041921
  C   4.87549249704956      3.59140717037813     -0.42964514888082
  C   5.79265865440474      2.47895538702168      0.04134295767487
  C   5.05315341205693      1.16358035875873      0.04703440275785
  C   5.73408968881247     -0.04207475983645      0.04064891561091
  C   5.06305897107354     -1.25472727255255      0.03028485915570
  C   3.66697673881988     -1.27881734692766      0.01051590889894
  N   3.00200382005355     -2.48897335141536     -0.00616339568392
  C   3.62351412298585     -3.71959668553285      0.00415137199257
  N   3.06230482187085     -4.85932043542676      0.00035567414673
  N   5.00445991985190     -3.65899236479649      0.01852669226780
  C   5.80795753468083     -2.53017204477843      0.02770297646547
  N   7.07789318689921     -2.54147089007586      0.03477590335328
  H   2.11267707446735      2.42851890934425      0.82048486617227
  H   2.38358882751069      2.58219384639599     -0.91674134365301
  H   5.32631729289073      4.57220143245823     -0.28869485169763
  H   4.63529181414938      3.46856028337531     -1.49414414714944
  H   6.14440378720075      2.71331247081522      1.04933582792784
  H   6.67087184024482      2.40660481736479     -0.60311092358365
  H   6.81689897797991     -0.06864058628811      0.03970046429881
  H   1.99443652803295     -2.48267766693223     -0.01721689654770
  H   2.05016965452274     -4.79138120980291     -0.00972447668236
  H   5.44259469980241     -4.56835623855539      0.02235086896570
  H   7.45754751301223     -3.48539574983121      0.03166569240612
