27
Coordinates from ORCA-job 9863optt
  Br  1.13047450024507      0.18764880104368      0.16728119976058
  C   3.02672394402873      0.13630668470450      0.09403865125417
  C   3.68414701568874     -1.09243487162952      0.05303341345264
  C   2.91388976787543     -2.39181714561112      0.03458126075663
  O   3.71313875325073     -3.50991027111358     -0.24854744268086
  C   4.89507274625592     -3.53136854212794      0.52351457702287
  C   5.81761851262381     -2.41838355597820      0.06215267912934
  C   5.08180193891629     -1.10071602796353      0.05343082260981
  C   5.77922865741928      0.10109289594040      0.06309350423673
  C   5.10052648670231      1.31168810952432      0.07465692014339
  C   3.70995569859994      1.33504989934010      0.09535976023903
  C   5.80487348779164      2.61842660524954      0.08317860408270
  O   5.27471349563593      3.69226886462571      0.08443658055517
  O   7.15390585379349      2.47866280620251      0.08616485925126
  C   7.87602135099951      3.69730997399933      0.12576197993114
  C   7.86749702035985      4.28531800062028      1.47291701096132
  N   7.89151323520892      4.73503492969327      2.52485262963146
  H   2.14238246486059     -2.35206856561716     -0.73426768860668
  H   2.40497872378936     -2.51579374191016      1.00171222806759
  H   5.34723295818917     -4.51141333638138      0.38199332119361
  H   4.65022129750933     -3.41214462111265      1.58724624533936
  H   6.17412688384221     -2.64773440862570     -0.94534316088232
  H   6.69253721042076     -2.34886197972284      0.71155964029583
  H   6.86143096972433      0.09178396187479      0.06887723167769
  H   3.18634025935723      2.28069715234020      0.11832374044672
  H   7.46000590592759      4.41812777989476     -0.57743447121032
  H   8.89964086098375      3.45423060274039     -0.14857409665886
