28
Coordinates from ORCA-job 9869optt
  Br  1.61352462126623      0.56919688959766      0.51817507121850
  C   3.34175748940802      0.06671131465237     -0.03115081777949
  C   3.80240740424887     -1.21125163260784      0.08729154263908
  C   2.93041269759788     -2.29333673231961      0.67717460349820
  O   3.42686567688525     -3.58879345593870      0.46940524626149
  C   4.78226280236752     -3.70926361044073      0.84089545366470
  C   5.65759287930972     -2.94852791042146     -0.14238919859429
  C   5.12072128908866     -1.55299467638503     -0.31515737502803
  C   5.87024298998273     -0.55847125896370     -0.87341725049923
  N   7.11341701598401     -0.72206996098387     -1.40507536053408
  C   8.01255449967221      0.39493763944740     -1.60968389899006
  C   8.58719019588689      0.94278494472118     -0.29229411986761
  C   9.26523046201181     -0.12709240413405      0.43667945281355
  N   9.76582344066123     -1.01846101807236      0.95496884701610
  O   5.42905519181019      0.69437064173261     -0.98178111550609
  C   4.15968639045577      1.12432647648275     -0.55766696349970
  O   3.92024374443018      2.28699126126116     -0.68358691305750
  H   1.94040649371362     -2.25151891313565      0.22494553349267
  H   2.80996662000169     -2.08985012499755      1.75140817003502
  H   5.01770449947714     -4.77176761661338      0.83919868541767
  H   4.92698228121164     -3.32025177640370      1.85720878354536
  H   5.67144044848167     -3.48411087906438     -1.09684004913319
  H   6.68301901381887     -2.92382136199281      0.24156925023882
  H   7.54398709138710     -1.61359031464109     -1.21328140472516
  H   7.48146279337074      1.19300706774000     -2.12247234944112
  H   8.82165727961219      0.05334230285476     -2.25266361529528
  H   7.78422364920545      1.34215720236312      0.32922475877323
  H   9.29416103865263      1.74934790626293     -0.48968496666356
