26
Coordinates from ORCA-job 9878optt
  Br  2.34139878406769     -0.81873021297309      1.31630606259346
  C   2.11270436574164      0.86355164111022      0.40724559979269
  C   3.20124877539636      1.43100820047704     -0.22477064185877
  C   3.02111683617147      2.60391231542808     -1.15915684670630
  O   1.66468305213163      2.70122579955033     -1.47704063079918
  C   1.17865501496344      4.01800446911927     -1.65677150247059
  C   -0.33383953006398      3.93422214081126     -1.78995423629871
  C   -1.12718726661006      3.37501632679662     -0.64542169747087
  C   -0.70077457688971      2.53023932673757      0.43822653353567
  C   0.58778170266556      2.83352677053189      1.21253968118853
  C   0.30950644146118      4.03799608355341      1.68563997126668
  S   -1.41133436321969      4.18724756821453      0.87187726540245
  C   1.78205682969022      2.01608432259226      1.32208381911716
  N   2.72162719262220      2.26476198430623      2.16649111877483
  C   4.01973932994233      1.71631323766797      1.93831509537426
  O   4.87582863061320      1.67850750570668      2.76169029457735
  N   4.31942193418358      1.33317769692922      0.55539694220837
  H   3.64375393904852      2.47431697546451     -2.05508530003722
  H   3.37076552048147      3.51013463471118     -0.64420855715865
  H   1.61245827590211      4.45792276098897     -2.56319774045053
  H   1.46748351412759      4.64194361627816     -0.80176487427743
  H   -0.55095905440257      3.29965594183271     -2.65464028042218
  H   -0.72356009504140      4.92437732446029     -2.03316135086756
  H   -1.33128227094194      1.73307877409238      0.81892894100616
  H   0.84383957005610      4.73695834007546      2.31278888866880
  H   5.24786744790304      1.60054645553680      0.25264344531156
