24
Coordinates from ORCA-job 9880optt
  Br  1.18384833292021     -0.12481163520399      0.13138600189187
  C   3.03481453612441      0.13393644320742      0.20171464477364
  C   3.66572674340971      1.21561175243824     -0.25041725063089
  C   2.98546748572646      2.33172053191620     -0.98910871274423
  O   2.72935878890222      3.46741299314632     -0.20106065293813
  C   3.83051786855882      3.85228885428115      0.59559702980659
  C   5.15052387432462      3.79183227233243     -0.16322055406920
  C   5.82482310958412      2.43928425265199     -0.22134266972064
  C   7.16393695524631      2.34442026514181     -0.30461230005020
  C   7.84858180823236      1.05784038120045     -0.35973444322060
  O   9.00933593360667      0.92342555090683     -0.65444782160355
  N   7.05287563370925     -0.04549120825732      0.01267567118717
  C   5.79201785581945      0.09393140029804      0.09906189933986
  N   5.08122231089363      1.25957206032951     -0.11871447870951
  C   5.01379696859164     -1.11038735813002      0.58759943658612
  O   5.50073608887550     -2.14178790094993      0.88396356889006
  O   3.66230668391381     -0.92932381492360      0.75301998657088
  H   2.02552495517297      1.98602686010807     -1.35994427125750
  H   3.60529719986113      2.58991691727609     -1.85557404334936
  H   3.87789948723184      3.22883065184978      1.49669109382503
  H   3.63077448266649      4.87609999364486      0.90564934623193
  H   5.86323999483564      4.45872910816403      0.32099853950149
  H   4.99792800539619      4.18657494436353     -1.17072655862441
  H   7.76744489639651      3.24034668420809     -0.34745346168642
