28
Coordinates from ORCA-job 9881optt
  Br  0.99969931039864     -0.22554861342192     -0.23552327027245
  C   2.88108295714840     -0.10928117562623     -0.09265606395157
  C   3.64003018384049     -1.20855424953097      0.04139401285091
  C   3.02292300206447     -2.59357885815684      0.14038717684443
  O   3.92912207513621     -3.63537849854553     -0.10381378162212
  C   5.11355502221210     -3.49812760186335      0.64867500091273
  C   5.91978947463984     -2.31965373034642      0.12198495685892
  C   6.38969658959738     -2.58165140804746     -1.30401705303317
  C   7.43327937529771     -1.64336054305529     -1.93589791067169
  N   8.07143922144242     -2.83268876081806     -2.53902613801555
  C   7.42557080738937     -3.69935176967517     -1.53468294390022
  C   5.09159169429234     -1.05635754647615      0.13632287925745
  N   5.75048799538885      0.04500442004822      0.19402703742332
  C   5.17796940598174      1.30580427350744      0.18601782445886
  N   5.80481780703234      2.38544616010523      0.37225349215564
  S   3.43530488362073      1.52096564956573     -0.14575007556186
  H   2.22578932592299     -2.70229618938348     -0.59261510910884
  H   2.57778034303964     -2.70961281091907      1.13952466285242
  H   5.67245634841957     -4.42715376491667      0.53543298483279
  H   4.87313348650003     -3.36610428023314      1.71187145487469
  H   6.79130596701828     -2.14615570043284      0.75717609936479
  H   5.53445305785135     -2.71341439340728     -1.96661987617928
  H   8.03909585603360     -1.15243712625649     -1.16721842254124
  H   7.08498548963007     -0.89704628045891     -2.64909760628710
  H   9.08360623463107     -2.83584972449995     -2.53362016782628
  H   8.03292037941896     -3.86339262618232     -0.63519541790120
  H   7.07051664952259     -4.65808639214469     -1.91289364576886
  H   6.79459705652870      2.18086154117163      0.50755989995452
