24
Coordinates from ORCA-job 9890optt
  Br  1.18953419770626     -0.03198622037748     -0.14811694482469
  C   3.05800626757932      0.01009076916945     -0.01216000694586
  C   3.78536049844811     -1.12063709808800      0.04232184050599
  C   3.37095456057176     -2.56139939424784      0.00390245708161
  O   4.54115215073181     -3.28582120813125      0.37132893755055
  C   5.70450736378258     -2.51796963203708      0.09619819802894
  C   6.29895861718623     -2.85186232590458     -1.20978797798378
  C   6.78248675797000     -3.09754448258692     -2.27719443864714
  C   5.20488428803117     -1.09435095910937      0.11880250624094
  C   5.82989835507562      0.08930455984819      0.12158012518151
  C   7.29308351223661      0.42561057839723      0.13355700474043
  N   7.24552176579701      1.86448615416958      0.19817267412511
  C   5.98979277191182      2.39727438183633      0.10145042166571
  O   5.68214299960207      3.54457574376143      0.03878330908479
  N   5.10438706039141      1.25739079601321      0.09008409874685
  C   3.68614993974881      1.34024258398660      0.03314052369879
  O   3.10244360895905      2.38864097316520      0.02653727850694
  H   3.03645055015215     -2.83516805249396     -1.00312592958254
  H   2.57950545637439     -2.79607075633834      0.71474266860583
  H   6.43015429412818     -2.73000156351330      0.88448862027963
  H   7.20428584019552     -3.32670885071294     -3.22720170342895
  H   7.77770067069781      0.05565171642640     -0.77512242783469
  H   7.79324116612342     -0.01684702883308      0.99832250160780
  H   8.04239730659880      2.46709931560051      0.09129626359623
