28
Coordinates from ORCA-job 9893optt
  Br  0.98808357605469      0.00363847309331      0.38304960379774
  C   2.88371567390997     -0.05146757868496      0.20414520161231
  C   3.59198113397729     -1.24489342373322      0.30662775969095
  C   2.92883317230718     -2.58540146670561      0.50004921111238
  O   3.10894288353904     -3.43462736785178     -0.61787133830222
  C   4.24508946001060     -4.25377615660239     -0.57456597571254
  C   5.56986726903156     -3.51893398618976     -0.72188496864901
  C   5.82574744777514     -2.44126956354037      0.32459262191633
  C   4.98853326532617     -1.19148175351612      0.18516351867787
  C   5.62136672444532      0.01925469493174     -0.05374560011914
  C   4.89039489806990      1.19259086502327     -0.16345555317847
  C   3.51512269140552      1.16256541299559     -0.02803772966893
  O   5.65737361037472     -2.86813392543454     -2.00233976198003
  C   5.92673786202834     -3.62525792190927     -3.04858746554027
  O   6.10611572392878     -4.81250872283224     -3.04796637836112
  C   6.02551859588632     -2.82226652777155     -4.35055948321479
  O   6.02346303765758     -1.63250870465591     -4.39358961684848
  H   1.85699325954135     -2.46739435792464      0.62640478465894
  H   3.32201600467569     -3.07045868959204      1.40312699974283
  H   4.14102055006053     -4.97519965647941     -1.38383349252743
  H   4.28404889632469     -4.80973593676555      0.37274726462391
  H   6.36050143489409     -4.27132417324354     -0.66801848093951
  H   6.87735642320125     -2.15891667312808      0.27292512736877
  H   5.66863146658945     -2.89595716279755      1.30784750333696
  H   6.69861131203992      0.04290618407281     -0.16007712882526
  H   5.39072116956804      2.13259662074882     -0.35469955992775
  H   2.92831694918782      2.06690849748911     -0.10455075093962
  H   6.12289550818896     -3.46994699899610     -5.23789631180443
