27
Coordinates from ORCA-job 9898optt
  Br  1.23098726597485      0.03557588494693     -0.44097181416880
  C   3.12305313568752     -0.05821355815182     -0.28216896079213
  C   3.76089369717077     -1.24032094679635      0.07353144336401
  C   3.07354229924543     -2.55309224416558      0.32754385081539
  O   3.39597272822511     -3.53100886344262     -0.64269984578036
  C   4.56733932366244     -4.26928727319126     -0.38567725310098
  C   5.86507825587510     -3.48272195039452     -0.50550611355420
  C   5.99734249100681     -2.33825898166540      0.50387928004588
  C   5.15785277677350     -1.14116320042400      0.15285373993901
  N   5.80946320607114     -0.01178215129226     -0.09736125793303
  C   5.06955580837253      1.04217972215493     -0.42966781508111
  N   5.76278810290237      2.20319963343914     -0.69230485084740
  C   5.20994329984958      3.41733057764589     -1.04436407737578
  O   5.88119184016504      4.38907078193106     -1.26158825208774
  N   3.74634827110832      1.07089913542932     -0.53214350066262
  C   4.54397062152125     -5.43667672138471     -1.35713841906477
  O   5.50685182395074     -6.10123667490463     -1.60896872369726
  H   1.99553864299876     -2.42438654159816      0.28880493319049
  H   3.33309567898883     -2.92460460114295      1.32692174979443
  H   4.50665357787400     -4.70375358985596      0.62659142477896
  H   5.95579151452216     -3.09436082557400     -1.52270200094866
  H   6.67944025267413     -4.19360486524011     -0.36024770947408
  H   7.03131027224388     -2.00344550741481      0.55289959968609
  H   5.71802700246367     -2.69452815136129      1.50121706337560
  H   6.76952977354423      2.15472154995088     -0.61577689610134
  H   4.11630050872392      3.39269369863640     -1.10024245951092
  H   3.55513782840385     -5.63122433613411     -1.81171313480868
