25
Coordinates from ORCA-job 9899optt
  Br  1.08216640012375      0.17356494672627      0.22508871312962
  C   2.95423626682440     -0.00571984442435      0.15032800952359
  C   3.58994066506534     -1.24131433395858     -0.06329538616490
  C   2.90480742188295     -2.50832353427902     -0.44155956320325
  O   1.78550998654511     -2.54243775462598     -0.88497343105644
  C   3.70638629210860     -3.80153189145727     -0.31269917532824
  C   5.02260460751806     -3.66378115952893      0.43001036939302
  C   5.79539080661556     -2.46631433900611     -0.10043109047894
  C   4.98681683350986     -1.20986384677733      0.02784912662833
  N   5.66141458863348     -0.08182481556309      0.23454781008010
  C   4.93964563858557      1.01509018621262      0.36267678144159
  O   5.54993086513463      2.19854184308165      0.53481006896722
  C   6.92787902916671      2.29172326677761      0.56570859666762
  N   7.50692430588369      3.38690359989079      0.70607851890924
  N   3.61615278153905      1.10643637885479      0.35939465877887
  C   2.81855926308127     -4.88766006968133      0.27529179562499
  O   3.22312022138201     -5.67463819202137      1.08174803855860
  H   3.88673471208577     -4.10803370552166     -1.35331074966535
  H   5.60033095651216     -4.58117602884311      0.33310475376082
  H   4.82163031680880     -3.53379414659235      1.49597538140632
  H   6.04177890693391     -2.61109970421424     -1.15819346509285
  H   6.73596472788013     -2.31557399619333      0.42641475606973
  H   7.44555973343853      1.34705888646760      0.46036814257143
  H   6.84193174626903      4.15724685443016      0.78657299655365
  H   1.77958292647155     -4.90347859975345     -0.09150565707476
