23
Coordinates from ORCA-job 9904optt
  Br  1.09804745379312      0.07945621398233      0.22949443069140
  C   2.94990448930325     -0.06570356937502      0.04816882047809
  C   3.59563143520625     -1.22541777206054     -0.23351444995146
  C   3.20262960817809     -2.64856923504341     -0.25257800860371
  O   2.11009699695456     -3.12914050029208     -0.32807327241886
  C   4.53618405959776     -3.46681147931192     -0.08469493244120
  C   4.66942951794735     -3.78512141318151      1.33048078190903
  C   4.76142345819299     -4.00396935540754      2.50348812002229
  C   5.63641643389676     -2.48128260511132     -0.56848821266300
  N   6.94968872273182     -2.55049260817637      0.05503588797468
  C   7.54676033745287     -1.47319550839705      0.29596445223443
  O   7.09222543878258     -0.18063845947970      0.12292308339165
  C   5.73263705975402     -0.08314845433009      0.00021071645443
  C   5.00988710864404     -1.15727397594240     -0.30729876801115
  C   5.07657814118152      1.17462063809634      0.31300798546416
  N   5.57044881788684      2.30156893505811      0.62061577571788
  N   3.66723170872695      1.06489734577992      0.24639899897971
  H   4.48578279151780     -4.37871766629612     -0.67791044914138
  H   4.84601813832673     -4.21479091899974      3.54276391336187
  H   5.77067989811771     -2.64029218699822     -1.64307127354506
  H   8.55180599931065     -1.45473619867915      0.70003753987072
  H   6.58559412786121      2.25784913236577      0.62645243886615
  H   3.18189825663504      1.92690964179971      0.45958642135930
