28
Coordinates from ORCA-job 9909optt
  Br  0.98099861410944      0.12513670867159     -0.22333223514687
  C   2.86328271554440      0.07720520620713     -0.07758366288591
  C   3.58815190292043      1.23808462088784      0.00479453371926
  C   3.13667338367738      2.66671261614389      0.00919811417547
  O   4.30486890879418      3.41226398260403      0.32180382089899
  C   5.48471200120133      2.62223358253943      0.17287851710551
  C   6.41976807453828      2.88850220235822      1.33857623955414
  C   6.84277528388729      4.35792553822416      1.39766310592503
  C   7.72081020142883      4.63017080777831      2.53122990465257
  C   8.43906470550797      4.82029781526806      3.47079631952321
  C   4.98313854853057      1.20453172529883      0.09732940079040
  C   5.67903050441285      0.02021819639897      0.11041528226369
  C   4.95143435132757     -1.17676617950032      0.03623585652489
  C   3.54484662076725     -1.14025032352477     -0.05733014817301
  S   2.86856627452537     -2.72653507416639     -0.13029019171603
  C   4.44086342121204     -3.43494713306005     -0.03909384921553
  C   5.43666000589269     -2.52757549483316      0.04388418729444
  H   2.37327337110130      2.86523516705888      0.76401601856864
  H   2.73781604991443      2.96310052498621     -0.96793876104430
  H   5.98420368867557      2.90029265446196     -0.76634828782482
  H   7.30404426585360      2.25433602850019      1.24040126687050
  H   5.91441620046336      2.60921567692822      2.26502367762825
  H   5.95159131825459      4.98442276788029      1.46559661169008
  H   7.35494245903725      4.63300977593386      0.47154642817512
  H   9.07627716026584      4.99912364462615      4.30312316916086
  H   6.75986521870773     -0.00441438015130      0.18146500324795
  H   4.53325127468093     -4.50950768358681     -0.05187458351634
  H   6.48367347476747     -2.78702297393346      0.10881426175383
