23
Coordinates from ORCA-job 9910optt
  Br  1.14996539841105      0.10939552675158     -0.44240291588577
  C   3.01737687945202      0.11096384684740     -0.22385987961415
  C   3.77393568451296      1.22595682477548     -0.18588141015487
  C   3.42124732320976      2.62331278722005     -0.30207639084011
  O   2.14822398381239      3.02253761574247     -0.50031780207311
  C   1.98996203627284      4.41621746801609     -0.68110183166946
  C   0.58915337409915      4.70403877960121     -0.96595493165648
  C   -0.55298138135669      4.96478593235830     -1.20581282998734
  C   4.56217037152093      3.36552287068897     -0.18813248824245
  C   5.68530264471202      2.48337565808917      0.00222446283982
  C   5.24730293064442      1.19211567805909      0.00499177509628
  C   5.94283456891452     -0.04962314001669      0.13212741067065
  C   7.42357385136509     -0.05925837789226      0.30813130346732
  O   8.08528948665345     -1.06072552766345      0.36264326371841
  C   5.31973164348497     -1.24726890263334      0.10263917120322
  S   3.63365938034892     -1.49105733349902     -0.08101238694403
  H   2.61651535282152      4.75359507934644     -1.51434778153529
  H   2.30754557523166      4.94910727219015      0.22177143863962
  H   -1.57019857763264      5.18954875929443     -1.42180164000932
  H   4.62943398980391      4.44124424824904     -0.23378047011220
  H   6.70318805291406      2.82151462005223      0.11465868497430
  H   7.89788379781542      0.93257741131578      0.39314022483136
  H   5.89188363298819     -2.16187709689311      0.19915502328359
