25
Coordinates from ORCA-job 9911optt
  Br  1.08623890340754     -0.43592950784222     -0.40130669939195
  C   2.95814132525069     -0.29170513640801     -0.34426546429886
  C   3.78081587019069     -1.37377664747356     -0.07938443877317
  C   3.46814398228101     -2.79856831316450      0.20338104682814
  O   2.40908145624839     -3.32617466267018      0.36814618519460
  C   4.81831341081856     -3.55696504007482      0.16560102380991
  C   4.83951944939707     -4.33100907097867     -1.15743575702450
  C   6.08504153517776     -5.05895671792692     -1.36421499104028
  C   7.11774514796603     -5.64042530868152     -1.52922080193552
  C   5.90308003721546     -2.47163666656600      0.23936914137767
  C   5.15898653497643     -1.19926078041653     -0.07431873643210
  C   5.67218103851773      0.06183431368987     -0.33873827735495
  N   4.88505350252631      1.10209160722745     -0.59081245108965
  C   3.56601227825131      0.93410322901944     -0.59492696336774
  O   4.88970207536688     -4.54244313350827      1.19180880695140
  C   4.63352213302780     -4.12902245650440      2.43570161433339
  O   4.39316534817068     -3.00073609756016      2.74722368888568
  H   4.68865648181495     -3.62089470029684     -1.97585847465800
  H   3.98914276384984     -5.01605958712447     -1.15511005291506
  H   8.02950501148475     -6.16738013969716     -1.67924005501809
  H   6.71396377592227     -2.66392136422518     -0.46413763401804
  H   6.32806201403448     -2.42253394447887      1.24155150475254
  H   6.74120799063637      0.24503347232506     -0.34989989010777
  H   2.95822603571447      1.80422739673828     -0.81303447155346
  H   4.68349189775242     -4.97789074340179      3.12512214684583
