25
Coordinates from ORCA-job 9915optt
  Br  0.92548658039142      0.04857788398345     -0.28333480421588
  C   2.81255833336717      0.01044930995479     -0.08837081378268
  C   3.51740441899477     -1.12887508304332      0.09265885003501
  C   2.84280102400761     -2.48419967249835      0.13093958600694
  O   3.20649064543339     -3.29836745551991     -0.96553037023802
  C   4.30725516181798     -4.13490493196641     -0.74211263009662
  C   5.64867911730602     -3.39464887999612     -0.70350955145067
  C   5.96426897142142     -2.75683904403774     -1.97823572535795
  C   6.22922287390604     -2.22098004558358     -3.01475844754025
  C   5.76163485942016     -2.34265339650250      0.43905693030892
  C   5.45868698464372     -2.96399558030728      1.73361041324280
  N   5.23036691176760     -3.47563970203882      2.73306184582225
  C   4.96365582679596     -1.05824406930804      0.22534380763404
  C   5.69599494522316      0.07442167536674      0.16599839344533
  C   5.19607012013754      1.42233601671666     -0.02169183285175
  O   5.87639180726867      2.41410194986228     -0.06851943714462
  S   3.42731539082634      1.61646126325050     -0.18432759771781
  H   1.76678502686713     -2.36062699132891      0.07680066476016
  H   3.06656393230343     -2.99271375460731      1.07411022231549
  H   4.32946746912578     -4.84638795356253     -1.56620286840516
  H   4.18500487690628     -4.68749457945310      0.19728911627526
  H   6.41155594772984     -4.15209508200886     -0.49710073354955
  H   6.45685128323915     -1.74948484940613     -3.94128692735270
  H   6.81221929933355     -2.05418492746841      0.48482497877494
  H   6.77426819176576      0.03398789950292      0.26428693108249
