30
Coordinates from ORCA-job 9917optt
  Br  1.07977570014535     -1.65109078700516      0.58800097146702
  C   2.38710604895073     -0.42980795239589     -0.00809287738244
  C   2.54555874475985      0.78029782009475      0.56862746889031
  C   1.78627773736923      1.12675580373349      1.83557410633803
  O   0.42069976864919      1.41279802580900      1.66552766017448
  C   0.13135059980354      2.71516118253288      1.20181204463943
  C   0.23060451456967      2.89944482297695     -0.32547578955762
  C   1.02731473873219      4.14043894873436     -0.74349407895606
  C   2.51835138081873      3.91932815031464     -0.99286095544975
  C   3.31492005022232      3.22959910996257      0.13685229887754
  C   4.73255466228794      3.79686123727364      0.23630306750794
  O   5.04782734924341      4.88207895794652     -0.15161779471535
  C   3.42833066951571      1.73586275974363     -0.10034434255075
  N   4.31854722527605      1.44519160258901     -0.98234821182200
  C   4.58699032411863      0.15693771487736     -1.41193022983337
  N   5.66583296853961     -0.23515169160217     -1.93324187972567
  S   3.27249226370305     -1.04452667049458     -1.35051091162148
  H   2.28498526501074      1.95057968025531      2.35520071164723
  H   1.82525915131875      0.26088451192322      2.49595614278771
  H   0.77871877429606      3.43506080849134      1.71762359989876
  H   -0.88698158261772      2.91586470253609      1.53373670617520
  H   -0.78028100546808      2.96651479387668     -0.72820336823662
  H   0.66364167075889      1.99990629835273     -0.76755276429748
  H   0.60916857793972      4.54919188861769     -1.66518970624784
  H   0.89532556906869      4.92050040327697      0.01313408036977
  H   2.65806327965505      3.33161435299092     -1.90261038305923
  H   2.99486276485853      4.88455430578267     -1.16770982131239
  H   2.85677420759616      3.45243423162559      1.10347168782271
  H   5.46406191860690      3.13764459810741      0.73694483641033
  H   6.30886666227106      0.55307038907234     -2.01958226823840
