23
Coordinates from ORCA-job 9918optt
  Br  1.01224531222932      0.25290381255963     -0.28862409221122
  C   2.87722724220461      0.06475299855299     -0.12679114226984
  C   3.52888590096550     -1.16636360711321     -0.04805090951802
  C   2.79337544024624     -2.47161902111458      0.03697580224091
  O   1.70133346096812     -2.59388494104549      0.49411180251829
  C   3.60487012617078     -3.70754871536463     -0.48193203986429
  C   3.88153351593568     -3.48644094714074     -1.90549506942852
  C   4.10246564620576     -3.27645037985952     -3.06238707143508
  C   2.88020734380054     -4.94846789783834     -0.25852915512916
  C   2.28976883322299     -5.97030603147579     -0.07884579865977
  C   4.94464270604781     -3.66249319780042      0.31758168014763
  O   5.26057297777697     -4.52322586227008      1.07664986494339
  C   5.75683834877915     -2.41883660334462      0.06454338131146
  C   4.92522162208054     -1.16121500322034      0.00382231208812
  C   5.57802629041077      0.06698021737514      0.01049309843237
  N   4.95575399286195      1.23345131824850     -0.05663980473659
  C   3.63247760927598      1.23140404447970     -0.13439640875599
  H   4.29094698398403     -3.10201898330720     -4.09537981966708
  H   1.76413203501759     -6.88107000273211      0.08245303020585
  H   6.26048433833097     -2.55461954192210     -0.89808706697861
  H   6.52193520270875     -2.34721048684593      0.83639744968527
  H   6.66125880676850      0.09747775644493      0.07365145998840
  H   3.13679626400742      2.19180107473429     -0.20652150290754
