23
Coordinates from ORCA-job 9920optt
  Br  1.14942770579168      0.20719578415991      0.22945512883882
  C   3.00796160060194      0.05685770013740      0.05889758933642
  C   3.64424615901643     -1.11814995723557     -0.02862120817538
  C   2.90011060531024     -2.43214585001938     -0.07660443834235
  O   3.72243911847174     -3.46434979451916     -0.56460825397791
  C   4.88058628928169     -3.57522314049419      0.19836455883485
  C   5.85703812427925     -2.40043712220294     -0.10253316895048
  C   6.89411813447289     -2.45647758870717      0.93384556667785
  C   7.67475230988811     -2.60189131768514      1.82726319973158
  C   6.44115058472465     -2.61892429778058     -1.43998415603223
  N   6.86615208077688     -2.81698063869574     -2.48457629761181
  C   5.09324850487496     -1.06584265120850     -0.10685054228980
  C   5.70825503983836      0.12948976518138     -0.20769537694036
  Br  7.55815073192339      0.31292889555641     -0.45176819834838
  C   4.95842388755640      1.39603954955375     -0.17311947485853
  N   5.35181905865221      2.57933867851576     -0.29118298394594
  O   3.59914186325501      1.24771717133466      0.05202395924237
  H   2.05101916043180     -2.35769993102099     -0.75290112968051
  H   2.52323693559730     -2.69735593146914      0.91998824263785
  H   5.37382172448819     -4.51267145388186     -0.04806473658639
  H   4.65464111954498     -3.55488812549282      1.27064308400480
  H   8.38904694515021     -2.70797064832392      2.60942632058890
  H   6.35521231607164      2.62544090429785     -0.43539768415337
