21
Coordinates from ORCA-job 9921optt
  Br  1.10182410550232      0.38207560840575      0.00190528342288
  C   2.91524786174785      0.02241542387741     -0.00022117978313
  C   3.51090786717111     -1.19257144930378     -0.00137207361479
  C   2.77332530705867     -2.48299319718106     -0.00128786819470
  O   1.55950995153261     -2.56391070161700     -0.00049583990958
  C   3.64460598166507     -3.65357849925048     -0.00227826777374
  C   2.93670231681697     -4.98147292751237     -0.00209272407981
  C   3.82521072741028     -6.13649740682497     -0.00298229100313
  C   4.56723549869605     -7.07584367447992     -0.00382100506095
  C   4.98752501845927     -3.49969609148807     -0.00335570824711
  N   5.66889790456261     -2.29935322952621     -0.00358727256828
  C   4.97113430891711     -1.22429343352470     -0.00266551104766
  N   5.65896979862340     -0.00754093841562     -0.00293401868384
  C   4.98620646360828      1.05452188820265     -0.00193337969484
  O   3.62650185203847      1.16219035016927     -0.00048399983018
  C   5.60328630948024      2.36025329286085     -0.00215718065003
  N   6.08037076214895      3.40017357468303     -0.00232548583334
  H   2.27159582123434     -5.02177246780485     -0.86958139514675
  H   2.27278840135769     -5.02215748112876      0.86629174300301
  H   5.21400301890800     -7.92057011497975     -0.00456738574901
  H   5.62315072306064     -4.37737852516140     -0.00405443955502
