27
Coordinates from ORCA-job 9923optt
  Br  1.03112729044892     -0.16733285797130      0.20183772083623
  C   2.91793222200569      0.00646525778751      0.12047280567897
  C   3.47563032373529      1.27632772336422      0.20271575830315
  C   4.86475217850838      1.37255258783111      0.10975754703035
  O   5.52054711605068      2.55749014271641      0.26691527887996
  C   5.31579734352325      3.63861051556808     -0.64308181113653
  C   4.00275336065498      4.39616069933266     -0.44871089325718
  C   3.91836100395980      5.55361326632393     -1.43352547624133
  C   2.65642034852949      6.39046039680617     -1.21217943715133
  C   2.53356512288053      7.44611477495739     -2.21453658107897
  N   2.46309941151722      8.26258530412568     -3.01535035293934
  N   2.86101913093754      3.48473449952675     -0.63057591759351
  C   2.75983903014826      2.57217424094823      0.44705981512102
  O   2.30062259497570      2.87859769296290      1.50625856278184
  C   5.61336701934867      0.21306527867858     -0.02730960384468
  C   4.93645883044099     -0.99209920478449     -0.09484703066058
  N   3.60954048141267     -1.09881321462990     -0.03359692731417
  H   5.37076642231065      3.26014677869328     -1.67081814525867
  H   6.16226176482401      4.30394009412362     -0.47533381960268
  H   3.94506882989851      4.77128983714800      0.57568928381691
  H   3.92088712863782      5.16511955208218     -2.45584284558624
  H   4.80190099202176      6.18674990333123     -1.33192698935794
  H   2.67139848116589      6.85117824068181     -0.22276727927294
  H   1.77246025269915      5.75335351607671     -1.25847983437775
  H   2.98457893887969      2.97560399377138     -1.50184979587421
  H   6.69186775175114      0.26604944715761     -0.06832984812567
  H   5.48097662873326     -1.92213846660978     -0.20564418377470
