26
Coordinates from ORCA-job 9927optt
  Br  1.13085912871343      0.23761419320166     -0.20644430867353
  C   3.00026970467055      0.02541119254610     -0.04589217197163
  C   3.65490112732366     -1.20761853336938     -0.16650859546195
  C   2.94227915175232     -2.49174256820146     -0.45676318045902
  O   1.82774419543119     -2.54572140302428     -0.90477783188193
  C   3.67362354716858     -3.80918660368177     -0.20431742638630
  C   5.00500901183514     -3.68455249750159      0.54247167196874
  C   4.75038172311379     -3.42586201887473      2.04777260866872
  C   5.97899501477760     -3.06823452016585      2.75276423285534
  N   6.96080416378806     -2.76538526478191      3.25871011302298
  C   5.79910789566192     -2.54391203572746     -0.11010349114679
  C   5.05067395012438     -1.24356097554240      0.01068031267954
  C   5.75297037595991     -0.08581964105597      0.30491628451749
  C   5.08610000602425      1.12375603386819      0.41575134599505
  C   3.71439677125458      1.18113288359596      0.24157870564414
  C   5.76187221511756     -4.93614178411956      0.40666912362543
  N   6.34950851845711     -5.91200050802271      0.28600588344374
  H   3.85375327600392     -4.24821502808389     -1.18875844132446
  H   2.97717700341190     -4.47265313817805      0.31061746920433
  H   4.31639133103869     -4.31514194486693      2.50610141568206
  H   4.03913339784989     -2.60604133080730      2.16310441493531
  H   5.95424646400008     -2.80030716200426     -1.16173246823454
  H   6.78247894450746     -2.45354317588165      0.35092659049927
  H   6.82329101550458     -0.13784067089888      0.45818712860265
  H   5.63376052119655      2.02688051182770      0.65098757912612
  H   3.18527154531278      2.11868598975045      0.33705303506924
