30
Coordinates from ORCA-job 9928optt
  Br  2.44426393370870      0.77213714026419     -3.24618926106959
  C   3.05168870228446      0.72805611039894     -1.43787777726428
  C   3.62513609342174      1.83677981086201     -0.92035873994934
  C   3.32290129137178      3.26888676167867     -1.35848620708218
  O   2.55485078395379      3.96001893985952     -0.38375221098473
  C   1.16370940816636      3.67098458361605     -0.22244130624463
  C   0.93256560949479      2.18917974231824      0.07596139346798
  C   -0.10889001147787      1.64144493821679      1.04314272838167
  C   0.01143537747888      0.09567074744198      1.11551464943066
  N   1.33652136256390     -0.41884566210309      1.52194564586762
  C   2.44005849090813     -0.15610410287276      0.75689971237688
  C   3.61570574487685      0.40324529899999      1.44986598313437
  N   4.07192014048339      0.06078379442065      2.58342685657823
  S   4.43714179910162      1.73343315433769      0.61915110998536
  C   2.47439033776298     -0.32679490878262     -0.61855543147218
  C   1.60143880347586     -1.29099214302702     -1.19426002650570
  C   0.88031010032498     -2.13528212694789     -1.65101773966870
  H   2.81375494338356      3.25173002953762     -2.32384186739498
  H   4.23401500260446      3.85902609405549     -1.45425808066622
  H   0.61532134897376      3.99015484792077     -1.11531693528640
  H   0.85868732754229      4.30321942464778      0.61231212351280
  H   1.87619518059161      1.90175539127747      0.51368532078727
  H   0.82566570496429      1.65468796490560     -0.86784341598984
  H   -1.13205968776570      1.86005876992892      0.72609693129470
  H   0.02355829724450      2.07681197850892      2.03816854162406
  H   -0.23511562741294     -0.33300138362314      0.14545665728961
  H   -0.70522034764163     -0.29973347027119      1.83414883443216
  H   1.50693510784219     -0.32277524898341      2.51298231098724
  H   3.57231943407648     -0.73664869231914      2.97457121697513
  H   0.24979534769673     -2.88188778426707     -2.07113101654695
