29
Coordinates from ORCA-job 9932optt
  Br  0.89987875830843      0.52283460192953     -0.78823997874877
  C   2.76698434516868      0.46098872233795     -0.55553339408911
  C   3.46218898988709     -0.70400767427777     -0.55133957632051
  C   2.75278507547012     -2.03792400826665     -0.69159631187920
  O   2.30848724311743     -2.49546820279046      0.57904997608550
  C   3.12869363276980     -3.41633700898932      1.25243205327944
  C   4.55577282595573     -2.93058070747758      1.46537322350992
  C   5.28595324046761     -3.79155284114383      2.49967969030944
  C   6.65713742855758     -3.31252731028114      2.65530077965594
  N   7.71687388114187     -2.88740477869834      2.75057461773926
  O   5.24058962701988     -3.05352989564559      0.23763737883051
  C   5.76918747251678     -1.89296676415860     -0.37995014109895
  C   4.89144853834845     -0.67201002073649     -0.31539690467525
  C   5.46752596147899      0.52050372713632     -0.06608372011065
  N   4.75622460703168      1.67949413680433     -0.09053345478893
  C   3.39145434863052      1.77516707786536     -0.35590480322973
  N   2.73664610447143      2.86676712442678     -0.40578306740710
  H   3.40243844464225     -2.77412696434713     -1.16624388090619
  H   1.86170539193538     -1.91142147120671     -1.30017738244602
  H   3.18103038796049     -4.36565251353746      0.70247088951541
  H   2.64002400620612     -3.59304671854767      2.21183362109157
  H   4.54006598511854     -1.89167201667021      1.80700741978451
  H   5.30911571630065     -4.82949062078130      2.16175766171182
  H   4.78323814139719     -3.75274668738252      3.46699172107548
  H   5.93002116912973     -2.19632996826251     -1.41702817876312
  H   6.74596185852871     -1.64986059867821      0.05088879816349
  H   6.52218816368424      0.62024293515849      0.15439583174127
  H   5.23654546777485      2.54464656506554      0.10041557927691
  H   3.32783318697970      3.67901188115520     -0.24499844730694
