25
Coordinates from ORCA-job 9933optt
  Br  0.96265340597759     -0.19929780803743     -0.03763995798856
  C   2.84032561078530     -0.04286954538140      0.06755977917057
  C   3.53847277239989      1.16525111784342      0.08786692877929
  C   2.82992511111195      2.49228088274230      0.09689023688646
  O   1.67298118134088      2.61151590992323      0.40760755896136
  C   3.66652519357738      3.69302219458365     -0.27384370856301
  C   4.98911551536535      3.65381234921642      0.47922461814869
  C   5.78337318684428      2.41990715685745      0.05489077458524
  C   6.98958855117950      2.29474366055100      0.96138360938730
  O   8.12034286297706      2.47173591347100      0.60948757596696
  C   4.96068564834771      1.14221194001569      0.08851859437824
  C   5.64983105797175     -0.05569160860332      0.09524885019611
  C   4.94812938887231     -1.25754827672589      0.09801980447712
  C   3.54640347069127     -1.24064537049433      0.07703322432681
  S   2.94792949953733     -2.85885234394750      0.05985576558425
  C   4.59212669870903     -3.41010120761828      0.09072977934737
  N   5.51547485469067     -2.51508807570371      0.10727131627753
  H   3.08386146764102      4.58300743091751     -0.04551011899537
  H   3.85614475058136      3.66842164862250     -1.35195645800064
  H   4.79471489774255      3.61831110327778      1.55626080906410
  H   5.57510321049126      4.55205620272547      0.28400537808397
  H   6.16157448501928      2.56972312164197     -0.96077888988738
  H   6.75180144059875      2.04354053996109      2.01533000756750
  H   6.73316153996381     -0.08154528549361      0.08797054219749
  H   4.80075419758262     -4.47190165034502      0.09457398004860
