27
Coordinates from ORCA-job 9935optt
  Br  1.71141314066691     -1.04602503582089     -0.56961837384784
  C   2.99492990731382      0.27142806468579     -0.17184475971957
  C   2.96261584327001      0.96683352261245      0.98108751947026
  C   1.72073998610018      1.34243408858765      1.73000215957853
  O   0.87316622369591      2.12409864747554      0.88700259606197
  C   1.48215546934058      3.17532852020177      0.14489306854313
  C   1.50638716195599      2.91608739390496     -1.37156059326441
  C   2.58817873111366      3.70939755486840     -2.14989963105264
  C   3.68965821561515      2.91940385724681     -2.86544363065082
  O   4.80480497013389      2.59420164451072     -1.99106058987312
  C   4.51329159534256      1.72654082881052     -1.03593494078057
  N   3.74112039622761      0.72677175267174     -1.21691547617256
  C   4.98824935133290      2.08957167461401      0.32812903982469
  O   6.00739217794007      2.60571932255873      0.64564413626468
  O   4.02128658715634      1.78864943932315      1.25366826814145
  C   0.71943894588199      4.44944511598174      0.47551024668164
  O   0.54799859787568      5.33966792573576     -0.30619854810821
  H   2.00147781685290      1.90462450558100      2.62441199061742
  H   1.13565824394443      0.47182707683703      2.01546688184311
  H   2.49824865725756      3.36530994329929      0.51327915370058
  H   0.52513366553757      3.19326796192970     -1.75681018656475
  H   1.60848658593811      1.84725704299619     -1.53755310121567
  H   3.06639477884125      4.45073199680895     -1.50338695378737
  H   2.08856355016632      4.29252891855420     -2.92458536967661
  H   4.14967106131625      3.53397263640388     -3.63427483053353
  H   3.31019755000652      2.00268194010062     -3.31640301270213
  H   0.33734078917581      4.49924365952027      1.51239493722234
