29
Coordinates from ORCA-job 9936optt
  Br  2.14871076393159      1.19557737189595     -3.08275857010124
  C   2.38922585065206      1.27442631666394     -1.20887566913708
  C   3.26600164983279      2.16678242559556     -0.67061329682293
  C   3.68590518520497      3.43162519925448     -1.36591309199540
  O   2.55579234124864      4.24314075215390     -1.66759282538484
  C   1.67163313157986      4.50909080363894     -0.58700776206672
  C   0.37271951917973      3.67438894511400     -0.67234365678157
  C   -0.03375810761645      2.97808943497661      0.64196326403371
  C   -0.96741250109608      1.80117880486825      0.38168137750643
  O   -1.96398875763191      1.94528950067276     -0.27278012915952
  C   -0.71865948355484      0.38889146606568      0.96573032697972
  N   0.59650050385270      0.14862308205350      1.54498106715338
  C   1.65849960448697      0.52142908083227      0.78036141954950
  N   2.75952039760589      1.03393692499341      1.38296450774242
  C   3.54740351573852      2.02294486972426      0.74299900409730
  O   4.32883163081727      2.66313018734253      1.41105033411188
  N   1.53821982399352      0.49386372323474     -0.51627712253644
  H   4.16598571394375      3.23474643477880     -2.32280016340496
  H   4.38271137761908      3.96972696056446     -0.71893858457724
  H   1.43819902794473      5.57313129236240     -0.64054625626701
  H   2.18306300232451      4.34319787075292      0.36803762517557
  H   0.50718202621467      2.92547121603487     -1.45093345007929
  H   -0.45661278540646      4.29597536222597     -1.00704114350318
  H   -0.59158364745196      3.67184579378380      1.27789377182940
  H   0.84856070570530      2.68971277065864      1.20989499915844
  H   -1.46826347357521      0.21353885682184      1.73744725617013
  H   -0.90924137031842     -0.31115590391858      0.15488648146767
  H   0.68413865671633      0.32852313089309      2.53227771754856
  H   2.85271569805841      1.02587732596094      2.39025256929332
