22
Coordinates from ORCA-job 9939optt
  Br  1.05882771025063      0.22210234211056     -0.85759677792358
  C   2.83644345165884      0.04409228730103     -0.26361386197073
  C   3.39076036541134     -1.15697707929259     -0.00184527203168
  C   2.72336712451252     -2.45764769172163     -0.00751959188591
  O   1.41751482366264     -2.48004872733443      0.30910538489225
  C   0.79900352029915     -3.75373349022841      0.36686733712294
  C   -0.57349823456666     -3.58398760635744      0.82320350241364
  C   -1.69941140852927     -3.46009858763705      1.20392942755089
  C   3.47073075516586     -3.53713007281687     -0.27958508011544
  O   4.81965620716625     -3.47788801379512     -0.45177072244638
  N   5.48812668484576     -2.40142882624008      0.02372683792259
  C   4.81978353176504     -1.33741539896644      0.27038126754200
  C   5.67567536934077     -0.25507804366308      0.86721325215732
  O   6.68507130750969     -0.47051153833898      1.46393767095128
  S   5.13388165810067      1.41257883299531      0.64296471228169
  C   3.57854795379610      1.32080196252106     -0.22565616996535
  N   3.09867113038502      2.37338120010433     -0.72999912471458
  H   1.34764122685519     -4.39956870098973      1.06175019293308
  H   0.81324865869417     -4.21913727689513     -0.62460732945155
  H   -2.70030126900025     -3.34396831700887      1.54640365284798
  H   3.11260364856155     -4.54941951296469     -0.37463302701269
  H   3.71965578411491      3.17608225921826     -0.63765628109780
