27
Coordinates from ORCA-job 9941optt
  Br  1.15064409168768      0.17190202238276      0.43374670277675
  C   3.02610223304036     -0.00251917273203      0.25942471491435
  C   3.65948811655777     -1.23638549021449      0.28319440609625
  C   2.95343720611767     -2.55927835145000      0.45668813301637
  O   3.22021066575268     -3.46320773745059     -0.58955529974748
  C   4.40538880259878     -4.21510906648099     -0.43497090188330
  C   5.65580028938196     -3.39396413849117     -0.69174555093561
  C   5.72802132312432     -2.82498072730445     -2.09725456479190
  C   6.04267903678079     -3.86633992699400     -3.13435669684991
  O   6.21792347005423     -5.03030990439950     -2.89779715542230
  O   5.78351355806584     -2.35327273232661      0.29271075444804
  C   5.05565991531745     -1.22030419374494      0.16115468613264
  C   5.71728701358955     -0.00211577424377      0.00669753917047
  C   7.18934902523143      0.13010604072723     -0.21452279241144
  O   7.91278172066638     -0.72990164659652     -0.63539395306956
  N   5.07608200530398      1.16749601095657      0.01907115680872
  C   3.76388668967749      1.17431563367513      0.13380710117641
  H   1.87777980763823     -2.40708357025043      0.47217426580432
  H   3.25768130409301     -2.99149036066366      1.41833347702216
  H   4.35901862832503     -5.03439965091729     -1.15126245370886
  H   4.45423178861923     -4.63255986603787      0.57681864065501
  H   6.52355198581701     -4.03036569347119     -0.51872614741933
  H   6.51381947095175     -2.06325823175393     -2.14356120557617
  H   4.79022080953038     -2.33646326577371     -2.38326496014864
  H   6.11789583426394     -3.48841586874478     -4.17075820880408
  H   7.55519576823525      1.14913893048546      0.00171990748960
  H   3.26134943957773      2.13376673181479      0.13062840525751
