27
Coordinates from ORCA-job 9942optt
  Br  1.17189990996685      0.12684173315025     -0.01412517934256
  C   3.02680283082685     -0.06252340579082      0.15549505879140
  C   3.68777801718530     -1.20964570757219      0.29335900296010
  C   3.04065465762818     -2.56393383963797      0.30208879960118
  O   3.50023871927589     -3.36998490928846     -0.76591181158231
  C   4.61031097999221     -4.18545417808031     -0.48122853754068
  C   5.91171006818127     -3.41827091472411     -0.37089067899769
  C   5.84179444237406     -2.35342165542535      0.72083077268643
  N   5.09263766037642     -1.16532140030043      0.33916361501923
  C   5.77670627011985     -0.07146739191106     -0.16568065483673
  N   6.97975428674532     -0.00091845352705     -0.54659692212458
  C   4.99524215591418      1.23336606832154     -0.16459721433877
  O   5.48302696460065      2.29548868670387     -0.33026269265125
  O   3.65349345620984      1.14280218662306      0.09998074307735
  O   4.73666780721752     -5.08788217457374     -1.53754692425997
  C   3.76278872862656     -6.03871086142125     -1.62775979825638
  N   3.66620132208962     -6.85931400957238     -2.56408086432486
  H   1.96917310840583     -2.44399496683660      0.17380260921663
  H   3.20646389457132     -3.07051740852541      1.26035313850246
  H   4.41068537376006     -4.72953405213849      0.45708676985397
  H   6.12972427997832     -2.96175341333077     -1.33841511914341
  H   6.70533357770305     -4.13141040347098     -0.14129746116517
  H   6.84090152588186     -2.02685213127637      1.00254543661889
  H   5.39434507055699     -2.76674430498142      1.62737721205169
  H   7.45557335316941     -0.89945586983670     -0.54062787549839
  H   3.06401237756597     -6.04249129278754     -0.79187952448608
  H   4.39007916107657     -6.70689592978933     -3.26718189983047
