26
Coordinates from ORCA-job 9945optt
  Br  1.11791726251251      0.24595100713200      0.07540268809069
  C   2.98454406816331      0.10488558889738     -0.00746512061978
  C   3.63651392164415     -1.06314405753049      0.04159417377550
  C   2.92353304149181     -2.38706264643351      0.18160042381368
  O   3.77152670828973     -3.47513313908967     -0.09666476959737
  C   4.96549282138826     -3.40627823388780      0.63273279727798
  C   5.85592843032934     -2.29079926529767      0.07369242784161
  C   6.38286016406527     -2.66063149545365     -1.24459846649519
  N   6.82370051944349     -2.93203439012984     -2.26684642063520
  C   5.07971510805878     -0.98418223564137     -0.01343966354781
  C   5.71462368210935      0.20215567127463     -0.11227890695765
  C   7.20653262539860      0.31946473043114     -0.15293395319820
  C   7.85220636791244      0.25123012194928      1.21982784279523
  O   7.33719473179986     -0.27089632566017      2.16695685209711
  C   4.94315963537947      1.44720057176239     -0.08916217536654
  N   5.33035279584336      2.64546702646697     -0.05121664088900
  O   3.56667907180959      1.29664135252054     -0.10137999317362
  H   2.09417235239212     -2.44932113118708     -0.52084530699892
  H   2.51591587283418     -2.48381798292700      1.19708402080037
  H   5.46193004958503     -4.37056175139058      0.54605383025283
  H   4.76735677627959     -3.19778181631769      1.69130238113718
  H   6.70357184469295     -2.15008525063474      0.74784478756093
  H   7.53001400497173      1.23075656188450     -0.65734875988503
  H   7.65211753618977     -0.49578561546916     -0.73546692507375
  H   8.86730588108538      0.68177117962963      1.29403760192601
  H   6.34013472632989      2.72099152510199     -0.05048272493107
