22
Coordinates from ORCA-job 9948optt
  Br  3.40509001630643     -1.96747159909483      1.68014090879665
  C   4.03260251139664     -0.85649901938088      0.32512982634875
  C   4.62950751397104      0.32521423841244      0.56826183475487
  C   5.11820682479894      1.08524817486430     -0.55224692459819
  O   5.70072161428776      2.30754530753886     -0.32251823963278
  C   6.93750671151810      2.31813557973835      0.28159604241971
  C   7.20429038418053      1.77100469870591      1.47419397665284
  C   6.25047809216361      1.12642633274850      2.38175055180105
  N   6.52889162925916      0.69605835032942      3.54118824070482
  C   4.81021330019193      0.91145513765764      1.94301894993452
  O   3.88219208502636      1.16170329169584      2.65030264220121
  C   7.92478836455773      3.02683109175588     -0.46731821876151
  C   8.75006416353498      3.62848974845901     -1.09300928291637
  N   4.98360525573627      0.73441550822840     -1.76895217253234
  N   4.35664853481798     -0.42575949889345     -1.99154581110637
  C   3.86538182575415     -1.33301743327595     -1.05910558691905
  N   3.31687082581467     -2.44584452870151     -1.32926024951117
  H   8.22133259013427      1.86178510155877      1.83441642177686
  H   7.51534143649754      0.84127086667156      3.76453985887688
  H   9.48437366187669      4.16275060984813     -1.64850814412515
  H   4.26961083015955     -0.65785694383392     -2.96864287979658
  H   3.27128182801558     -2.62888501503247     -2.32943174436866
