24
Coordinates from ORCA-job 9949optt
  Br  1.82875207217017     -2.23899471807275      0.73404068803713
  C   3.48139630561288     -1.42393263241781      0.38192038812952
  C   3.87503031722770     -0.98135430163690     -0.81973295638972
  C   5.07483788355528     -0.05378369407985     -0.81471980112912
  O   5.21229485771949      0.75661102123320     -1.70026693374733
  C   6.12369217513500     -0.35719785170522      0.17888119086312
  C   5.88235400497378     -1.30213879156862      1.11648336458762
  C   6.76547044528854     -2.45811258747696      1.10190405543752
  N   6.09462460046758     -3.54770658775670      0.91424796318424
  C   6.31202078693960     -4.13773532903785     -0.32325012112988
  C   5.13271666955036     -4.39195371317682     -0.95615501257307
  C   4.80187461230827     -3.59681099071938     -2.12456667453808
  C   3.59558824902684     -2.99605913157124     -2.05499196859097
  C   3.43081017779262     -1.50940787346613     -2.17495273982073
  N   3.17671738004472     -0.85432158891678     -3.21652148642956
  C   4.44718480254208     -1.46152013219654      1.54074341445067
  O   4.12516141689605     -1.65715076737627      2.67449936052380
  H   7.12850058412790     -0.10408317214331     -0.14096456904755
  H   7.75355246732176     -2.29057370780751      0.66182435031267
  H   7.21142095214749     -3.87636524151100     -0.87981384273305
  H   4.29633028959240     -4.64739874046365     -0.31446152116159
  H   5.61025000565084     -3.15343179394373     -2.69725906210311
  H   2.84875512821142     -3.46616498841360     -1.42663639306910
  H   3.21866381569719      0.14958731422542     -3.03625169306343
