28
Coordinates from ORCA-job 9953optt
  Br  2.00630009323717      1.11301900983077      2.79985993819922
  C   2.75164239437021      0.82243072261890      1.09319803824616
  C   3.61349371373025      1.68092584746195      0.51199869290241
  C   3.47936326425138      3.17735101599191      0.53913788143659
  O   2.64951233295525      3.42173604872000     -0.58890691583029
  C   1.33982806765698      3.92360115505658     -0.35794080490936
  C   0.35641860429335      3.06219286816651      0.43668212511779
  C   -0.37107950035971      1.87847209662004     -0.23474780267639
  N   0.33005060569983      0.70267740297302     -0.73051034368487
  C   0.77865749090621     -0.37550562727885      0.13970355793720
  C   0.39469477847984     -1.69155748472786     -0.40831591882908
  N   0.11218061457365     -2.71654133891770     -0.83338366327856
  C   2.29288484434503     -0.24581790351490      0.24782440611471
  C   3.09457059204038     -0.70617413925460     -0.73103827304911
  C   4.36121598841997     -0.04147903364654     -0.99305433693175
  O   5.27921989639805     -0.41117934221192     -1.65257557448525
  O   4.39132470472820      1.27081498553092     -0.50025267140533
  H   4.43714937863355      3.67063086704484      0.37684053972519
  H   3.03094351393665      3.52224924032032      1.47158164289191
  H   0.94665353685858      4.11549955798471     -1.35831688177430
  H   1.42578397069932      4.88943852578643      0.15315383196148
  H   -0.45271417115897      3.75048519028740      0.70648839203304
  H   0.79704539232196      2.77310287404124      1.38554322316165
  H   -0.92139407505440      2.27728593414641     -1.09178663585993
  H   -1.12960558502550      1.52415060527593      0.46754844663292
  H   1.01169878368631      0.90980677553822     -1.44735620881740
  H   0.30035439959253     -0.27442744247695      1.11493515292305
  H   2.77680636978390     -1.46218841136683     -1.43730983775170
