30
Coordinates from ORCA-job 9959optt
  Br  1.21601432189700      0.81020151466293     -1.02472599790545
  C   3.05046956967873      0.33128227597776     -0.93574184183836
  C   3.43397294559215     -1.00020984864406     -0.84250294980663
  C   2.52243721354795     -2.19610857692688     -0.73665449417986
  O   2.38313865531515     -2.64376991845056      0.59710502435424
  C   3.36630808493079     -3.53000578819852      1.09334688376411
  C   4.63746854004871     -2.84279354808002      1.62535477967796
  C   5.14322052889313     -3.52874512524540      2.88968165275582
  N   4.24261977149232     -3.30218143898892      3.99302829785479
  C   4.41990911612016     -3.88032253602410      5.21941450626309
  N   5.29128801605048     -4.73155627383958      5.57532271072799
  C   5.76399950691589     -2.82550101572436      0.59623632405813
  O   5.27913050603071     -2.44699047084449     -0.69084526241161
  C   4.81614900751612     -1.17821512055877     -0.76082651591914
  N   5.69444999736033     -0.19313355856993     -0.74230091716408
  C   5.18624806062685      1.02797419043141     -0.84696502205153
  N   3.90114395506233      1.33854181674034     -0.95317343960184
  H   2.90722090080164     -3.00064813405861     -1.36892065152844
  H   1.52387161004688     -1.93098636335824     -1.07445261500322
  H   3.63440663347420     -4.26717756830557      0.32654512086584
  H   2.87868678429362     -4.05654005152936      1.91439558971957
  H   4.37006245717447     -1.80967607656650      1.87605871302941
  H   6.15340250856714     -3.17503405964993      3.13311531730738
  H   5.22007422827272     -4.60775052320176      2.70549815175124
  H   3.59287713697619     -2.53688052709261      3.92391822458841
  H   3.68582571351246     -3.54699551378210      5.95213120454851
  H   5.93671963959172     -4.96861131035052      4.82366721685247
  H   6.17307582382595     -3.82753226007158      0.46101127675197
  H   6.57030037326034     -2.15219335787077      0.89721437996244
  H   5.88450839312376      1.85655916812073     -0.84593566742325
