24
Coordinates from ORCA-job 9960optt
  Br  1.24145689425517     -0.51906492852709      0.58952334293400
  C   3.05398034068673     -0.20744168207928      0.25678993792948
  C   3.62999838044888      1.02310263360524      0.21666559373325
  C   3.24381159091814      2.37735419027399      0.36450000888837
  O   1.99706647715548      2.78588565254470      0.61854140638344
  C   1.84652452751490      4.19925074337895      0.73870175337944
  C   0.44948580992043      4.49605154455409      1.02730815496895
  C   -0.68841936060465      4.77561496093517      1.26639404651837
  N   4.27171999809752      3.18821754186011      0.21625495416292
  C   5.36427663177187      2.41121820544109     -0.03315186408295
  O   6.60097449212510      2.93365530335165     -0.24331966195606
  C   6.79473167927038      4.28234900617170     -0.13633265451908
  N   7.90310210069662      4.82544433209806     -0.34222264305446
  C   5.06736052679273      1.07647248142778     -0.05267760752268
  C   5.74636705388426     -0.14688641528033     -0.25589192712807
  N   5.15702518535655     -1.30007533980493     -0.21063523029223
  N   3.81291670598308     -1.29116577929329      0.04951818926641
  H   2.16230841695030      4.68072181579136     -0.18927424192209
  H   2.49192070379463      4.56863343815264      1.53875527938362
  H   -1.70154463893468      5.01926574716899      1.48085777329020
  H   5.90857504142924      4.84122634910461      0.14199664590077
  H   8.61184935515630      4.13659145907990     -0.59639270990280
  H   6.80859576981492     -0.18425293539624     -0.46394770701255
  H   3.39591631751604     -2.20816832455889      0.07703916065375
