25
Coordinates from ORCA-job 9962optt
  Br  1.34191246633015      0.14635481114209      0.52744879081357
  C   3.15073564678489      0.14675613892442     -0.01302424606993
  C   3.80204830884451      1.34253603645480     -0.29903300553831
  C   5.15820985348377      1.28886187093398     -0.62489749066389
  O   5.84438852303776      2.45337560802255     -0.94784135591288
  C   6.65990800101588      3.07291050407899      0.03329191129136
  C   5.89584450478019      4.13362452105829      0.85353542146828
  C   4.60482905019721      3.51850325311414      1.34108868020422
  N   4.45144271750206      2.80826096317886      2.36718767400486
  N   3.52765164471214      3.65574313697271      0.43285114376687
  C   3.05988514431006      2.64982276977319     -0.37424424937029
  O   2.15513811606523      2.82286019937671     -1.15010372261413
  C   7.29102981923453      2.10900759389979      0.95767824734199
  N   7.78405432340584      1.41200616982488      1.72103302410863
  C   5.83068027883312      0.08121482107624     -0.71123890938070
  C   5.15569322411576     -1.09497068887332     -0.43013864013088
  C   3.81863546404157     -1.06677264295187     -0.06875541225576
  H   7.46418934962511      3.56174549450743     -0.51783513803811
  H   5.69306400685699      4.98149512848126      0.20001841507205
  H   6.52197983492488      4.46268582122949      1.68273380658723
  H   5.32101047265035      2.71285097588574      2.89263340681053
  H   3.23070317389267      4.58132240414328      0.15594950898091
  H   6.87414891106705      0.07738815746644     -0.99595118171197
  H   5.67646800452312     -2.04122888044163     -0.48924989862383
  H   3.28934915976504     -1.97835416727854      0.16886321986015
