24
Coordinates from ORCA-job 9970optt
  Br  1.17241382710518     -0.16733932522346     -0.37007846496888
  C   3.03436156692561     -0.23002781148811     -0.17513877551482
  C   3.78657457795163     -1.37086083622082     -0.05552438215752
  C   3.20250950241297     -2.73142303584763     -0.08439157499082
  O   2.03432258620659     -2.97906775204890      0.06309158323951
  C   4.20125743192142     -3.86114081430466     -0.35055703069930
  C   5.44548452850332     -3.69921981743321      0.50817297175222
  C   6.12032592895632     -2.37856811495105      0.24616657760948
  O   7.31407198799645     -2.26019542197959      0.20729436026291
  C   5.21265665629182     -1.18252719959576      0.05593635695707
  C   5.79258201351133      0.03748793470016      0.03887823412924
  C   5.00214830305084      1.24121350709722     -0.10006563659685
  O   5.39949669354945      2.37980691999119     -0.14147479442272
  N   3.61762814762995      0.98274329189563     -0.18900612215814
  O   3.64171545632413     -5.11393240612717     -0.06124678526451
  C   2.68676207026219     -5.57555082271939     -0.91823039048897
  N   2.06267084325608     -6.64495794848428     -0.75836402707295
  H   4.48040919651330     -3.80301836775759     -1.41278523475609
  H   6.15343882760683     -4.50587975005329      0.33117622677310
  H   5.14755010672137     -3.72801562885770      1.56171365944603
  H   6.86379401327676      0.14235275127875      0.13549084948217
  H   3.03757243368550      1.80712058161599     -0.28893995895415
  H   2.51792079920591     -4.94285237357083     -1.78854934791112
  H   2.33433250113500     -7.10614755991547      0.11043170630511
