25
Coordinates from ORCA-job 9971optt
  Br  1.18757797543875      0.26470261750298     -0.09923880980775
  C   3.06570350062554      0.10627009760760     -0.03119374476014
  C   3.69501586899270     -1.13154015833842     -0.02292394067804
  C   2.91395679561819     -2.41925948981259     -0.01543519652288
  O   3.67946809562118     -3.54570354346152     -0.36580892723163
  C   4.89118206949808     -3.61017983493044      0.36187909921405
  C   5.81569510293767     -2.46900627686367     -0.04732020401045
  C   6.38254598170124     -2.75596635459130     -1.43152200069786
  O   6.14582944745507     -2.11357691677834     -2.40986572877318
  C   5.08889161397499     -1.15267885506761     -0.01974950854938
  C   5.76045358215514      0.07223708262718     -0.04373852727470
  C   7.24644441661509      0.19940446919344     -0.09507530465770
  O   8.02086035921237     -0.71689854018668     -0.17534618674276
  N   5.14086624508155      1.25115411893367     -0.03012015293583
  C   3.82106655685969      1.27269188746933     -0.02593942919906
  C   2.25664651273113     -2.69338939519404      1.34483556204249
  O   2.17170660334498     -1.90512891027751      2.23714271657175
  H   2.10604480732409     -2.35867143463018     -0.75083897078054
  H   5.33803810183553     -4.57879916790021      0.13778709546755
  H   4.69686378561763     -3.56467300843765      1.44020625205021
  H   6.67122711149284     -2.45109751366577      0.63108141033229
  H   7.03048558724908     -3.65306040138290     -1.47326829673395
  H   7.58208658066415      1.24934503658963     -0.05878851737019
  H   3.33224021512245      2.23942768183437     -0.02507461121893
  H   1.87410308283080     -3.72860319023934      1.43231592226663
