24
Coordinates from ORCA-job 9972optt
  Br  1.17852562536416      0.43691123281007      0.77506612188060
  C   2.97048282856716      0.13867950218449      0.31758251676886
  C   3.48456201350503     -1.06611305044039      0.04274168933530
  C   2.84758596197778     -2.42469373113468      0.12128306441655
  O   3.73039855344355     -3.27362071474448      0.83669554130476
  C   4.55303777619277     -4.14010665161408      0.08853629319468
  C   5.56579063272457     -3.46816198819542     -0.86586457185649
  C   5.12057171749312     -3.50778317404701     -2.33023376402891
  O   4.06464877682876     -3.92457689268831     -2.70570727644978
  C   5.85114802242105     -2.03055668273413     -0.56688751285090
  N   7.03203198828301     -1.49624331159576     -0.71199444852630
  O   6.89527968462544     -0.14261562125666     -0.48837801476597
  C   5.61101775407440      0.10377918823176     -0.21998325454042
  C   4.88777933471402     -1.03339516158467     -0.24926768275261
  C   5.02879555971594      1.40111824784201      0.06409672859873
  N   5.53852557745768      2.54505958465510      0.11479113508692
  O   3.66618316876897      1.29946178858184      0.30516495964384
  H   2.65427851709409     -2.82688589700991     -0.87863549517454
  H   1.90635138097697     -2.38295919406005      0.66713820749057
  H   3.94276425274367     -4.82849471413849     -0.50278703135833
  H   5.10060794364478     -4.71043626295707      0.83612465166118
  H   6.51803046221423     -4.00710817557288     -0.83729523974929
  H   5.86451145867708     -3.09956427429071     -3.03940793638910
  H   6.53509100849173      2.50230595375943     -0.08277868093934
