27
Coordinates from ORCA-job 9973optt
  Br  1.14163390233620      0.23218568069150     -0.05049669549668
  C   3.01469040992333      0.05572560694846      0.13613862016334
  C   3.67939664525268     -1.18213679760487      0.14478737502318
  C   2.93884961009376     -2.48333210519014      0.09846456553316
  O   1.78474689912413     -2.61219658183605      0.39445289811749
  C   3.77047917310594     -3.69779601844855     -0.35714799681232
  C   4.01202021351029     -3.57314299096341     -1.88509374191643
  C   4.92952793760932     -4.67191028181258     -2.36495837258381
  O   6.08993969489478     -4.49008624583514     -2.60945024703783
  C   5.07668407179496     -3.71357401706581      0.45695905122238
  C   5.88992815910064     -2.46482895701424      0.16849873576624
  C   5.08494140483744     -1.18824108668454      0.20824252829801
  C   5.77812747842349      0.01394497770520      0.29087901617481
  C   5.10455972894607      1.22053568160153      0.29804285922710
  C   3.72122089452127      1.24414358283284      0.21246610569800
  C   3.01521158007883     -4.92665268016672     -0.09392924256865
  N   2.47945059239578     -5.92318409661423      0.08291495131485
  H   4.46910227098960     -2.60967508712496     -2.10750903573089
  H   3.04732201248066     -3.64292589004041     -2.39201860357363
  H   4.48218410193777     -5.67897256072370     -2.45000787448919
  H   5.65357212090009     -4.60855088371774      0.22145205923512
  H   4.81181986251016     -3.76520213235450      1.51543026644773
  H   6.35555394899780     -2.55400853468473     -0.81820500281506
  H   6.70897733498357     -2.38704835249667      0.88457046627392
  H   6.85938910657240     -0.00677428858680      0.35149761272733
  H   5.65259272337562      2.15144183651337      0.36438113833645
  H   3.18307812130330      2.18126222267295      0.19963856346540
