29
Coordinates from ORCA-job 9976optt
  Br  1.28654614959743      1.21095187681677     -0.70479939296797
  C   3.04208057698334      0.55637718397145     -0.75076063959308
  C   3.36546478191865     -0.74900520611598     -0.60891367451050
  C   2.33335646948046     -1.84660258415386     -0.46951091284339
  O   2.06916414380806     -2.20958734080958      0.86601027255918
  C   2.94014135061052     -3.17472440692082      1.43539633228123
  C   2.19702589274946     -3.73800148429439      2.63322710180655
  C   2.81971918056984     -4.99308418774689      3.17260123389118
  O   3.77817747355214     -5.53196569448071      2.68835353627579
  C   4.29278949983506     -2.57467557614559      1.84105876339837
  C   5.43075895126052     -2.86338324167179      0.87659952053599
  N   5.14254511718027     -2.45082231258634     -0.50746352426277
  C   4.77159643068612     -1.09765114569458     -0.65839098582051
  N   5.70277226601769     -0.23076719631762     -0.87649828113689
  N   5.33177331121794      1.03869421727255     -1.05904456306803
  C   4.06779120831775      1.58071014355827     -0.98687433864369
  O   3.87904489732655      2.76795659109841     -1.13121678304513
  H   2.67407224881149     -2.71361380067138     -1.04086319336708
  H   1.39058646124706     -1.49281007609253     -0.87927657322739
  H   3.10511758089732     -3.98144729844940      0.71136935888633
  H   1.16144180532466     -3.96900476248682      2.36360765105742
  H   2.13600407722410     -3.00088886027494      3.44176847482741
  H   2.33110036603428     -5.42510442634592      4.06625802175304
  H   4.59967544434023     -2.97519463295777      2.80874134859044
  H   4.15300670123168     -1.49884100105205      1.97942904999257
  H   5.61155377928345     -3.93934819560158      0.86022280918173
  H   6.33771111233656     -2.36833393078216      1.24394135606029
  H   5.96206054373196     -2.62019056839637     -1.07817583051613
  H   6.08392217842539      1.68735791733161     -1.24479613809495
