23
Coordinates from ORCA-job 9977optt
  Br  1.44702396508662      0.41908001802003      0.15799479443786
  C   3.19747045936153     -0.17747942741669      0.16977338870445
  C   3.56856012669074     -1.43467763717363     -0.09920386479544
  C   2.79846546165396     -2.65424865247015     -0.49297051975237
  O   1.60813682525051     -2.76331522079220     -0.52891314998968
  C   3.81518313012841     -3.72996863978442     -0.85431954007724
  C   5.18153632550439     -3.25006292294384     -0.35258646753170
  C   6.30544654276359     -3.42157685691134     -1.37323238816508
  O   6.08886522196929     -3.61321621223800     -2.53368637477019
  C   7.74074154405448     -3.27373052665172     -0.86570301411827
  C   7.98159121063162     -4.04600989341943      0.34738603767240
  N   8.12899611882951     -4.66406274228490      1.30032096827201
  C   4.97128620764704     -1.77222901937532     -0.04848908844325
  N   5.92218238628304     -0.97065128950163      0.20781466363352
  O   5.55836464661870      0.33737628094583      0.46376530204589
  C   4.25856779797836      0.80139517351760      0.48289569119082
  N   4.01703975290339      2.00391251537499      0.74717731930289
  H   3.83255189462224     -3.81480628819998     -1.94455898945472
  H   3.51054381818574     -4.69122430427831     -0.44724641166789
  H   5.47008189472682     -3.75043280974334      0.57469187803434
  H   7.90339167754299     -2.21588230816466     -0.63931710516382
  H   8.41958654315055     -3.58370008392159     -1.65799618986471
  H   4.87338644841641      2.52451084741274      0.93140306050018
