26
Coordinates from ORCA-job 9982optt
  Br  4.78113786422342      0.20814362172828     -1.79441605767446
  C   3.58369381228006      0.52245219066903     -0.37003536231858
  C   2.46023652396015      1.23998377994540     -0.54105039143791
  C   2.09467665931730      1.89042142693678     -1.87445050135428
  O   0.87301047309746      2.56098458910721     -1.82550158321897
  C   0.87182935889599      3.75610888768961     -1.05957362973688
  C   -0.47877860802873      3.88349573490687     -0.35527878667591
  C   -0.36200872356267      4.42643924467676      1.05969951331482
  O   0.38278243747475      3.54236207173283      1.90316099760419
  C   -0.16246750944413      2.35603415760775      2.19802057803134
  N   -1.34466397109967      1.95705024156809      2.20027556682608
  O   0.82527025241492      1.49407240589111      2.62402809911457
  C   1.73968965857609      1.14885517938007      1.69846971531866
  N   1.57500659656357      1.46596590137097      0.48218188086153
  C   2.87153203004451      0.38799665690389      2.29569106857096
  O   2.98769951675564      0.13003849507633      3.45724635899318
  S   4.08779868130028     -0.17639770204817      1.12897100911585
  H   2.00346580561264      1.12245652311527     -2.64390024547165
  H   2.91146434954620      2.55927675017963     -2.17693846450262
  H   1.05860884537034      4.60566604310172     -1.72514105929546
  H   1.67098831313940      3.73054012921418     -0.31564088927960
  H   -0.92353757534342      2.88798025475018     -0.32574628809086
  H   -1.15748668001242      4.52601217151964     -0.91871349881622
  H   -1.34424905248737      4.61828856365998      1.49811601543878
  H   0.20105864201541      5.35854743647945      1.08881704408378
  H   -2.00575770060970      2.68222524483709      1.94070891059966
