28
Coordinates from ORCA-job 9993optt
  Br  1.25641464637066      0.24338125786675     -0.07971048054709
  C   3.14510848427109      0.13915739861784     -0.02550783861107
  C   3.75731208197125     -1.07015607241957     -0.01229162781892
  C   2.94895783739371     -2.35255946425011     -0.05501111047065
  O   3.71568746434598     -3.49325601541017     -0.31704757197159
  C   4.82709755460275     -3.53847108547122      0.54262176763320
  C   5.79739018574964     -2.44977155288426      0.15227851432838
  N   5.12381288684951     -1.15822560842904      0.04115094866624
  C   5.95893363161508     -0.02020982346483     -0.03891760810911
  N   7.23593798347117     -0.05379375171815     -0.11565127586808
  C   5.27288385940058      1.24816913905245      0.00978310179835
  C   3.92267943132814      1.35112576551095      0.00600440692550
  N   3.25765277718736      2.56580669729954      0.04487719975879
  C   3.67395098405930      3.77369941470385     -0.45459271191625
  N   4.67207181637724      4.10168429195331     -1.16431225947024
  C   2.71626860116492      4.88833139476796     -0.11071932238115
  O   1.71213658262239      4.70352183953340      0.51646118395424
  H   2.20484780564447     -2.27388034390350     -0.84533561570936
  H   2.41373903598221     -2.45722924393806      0.89919747919972
  H   5.29516706164214     -4.51478049146345      0.43268696933284
  H   4.50479675152017     -3.41798927887283      1.58493512858808
  H   6.26940894637453     -2.69409331414716     -0.80322267248686
  H   6.57765650313388     -2.35778706135023      0.91097420159638
  H   7.62620978353151     -0.98688594426292     -0.15827656718940
  H   5.91484971467987      2.11127293730161      0.09034531637402
  H   2.31842285765705      2.58297903773569      0.42444001374913
  H   5.27159160433537      3.31795595767898     -1.41154371859009
  H   3.02501312671795      5.87100391996319     -0.49761585076502
