24
Coordinates from ORCA-job 9998optt
  Br  1.08680809786571      0.07046315175353      0.09430987447072
  C   2.94897859135619     -0.10500153491058      0.05071903382330
  C   3.58097149730564     -1.28135882507223      0.01621442689127
  C   3.11910134133650     -2.70751007088668     -0.01821882654081
  O   4.29432395754610     -3.43147779439947     -0.37135901831981
  C   5.45233764906697     -2.70136328779430     -0.00703682741434
  C   6.55957796375063     -2.98562265451524     -1.00459011861871
  N   6.96013515885464     -4.37624303809220     -0.94590469332372
  N   7.46325842760254     -4.93237383044430      0.13447381864894
  C   7.65211224119659     -6.17351567424876     -0.27498800872459
  N   7.27663584385727     -6.34907794837379     -1.55539403561802
  N   6.83893812842223     -5.19571363134152     -1.96094823712036
  C   5.00908929969764     -1.26073316119275      0.00901760363519
  C   5.71080868004448     -0.11503307728635      0.02173349554403
  C   5.00302984580663      1.15425403587627      0.04195541763265
  O   5.47032801635263      2.24856994879831      0.04318517985297
  O   3.59527734278500      1.05852102412760      0.06170613032559
  H   2.35635505534286     -2.89865080403787     -0.77203015117624
  H   2.74432052765276     -3.03532984550007      0.95732498736718
  H   5.79061194418770     -2.99649053755968      0.99506198715979
  H   7.42896496828924     -2.36620395916119     -0.78348558957156
  H   6.21683559717867     -2.80329643596439     -2.02075569816773
  H   8.06148455826086     -6.94993799463314      0.34718100796238
  H   6.78971526624041     -0.05687405514117      0.01982824128192
